@<TRIPOS>MOLECULE
3R135
127   129    1
SMALL
USER_CHARGES


@<TRIPOS>ATOM
      1 CA        -84.3455   31.0024  -77.3794 C.3       0 UNK        -0.1998 
      2 C         -83.0247   30.3920  -76.9348 C.2       0 UNK         0.4909 
      3 O         -82.0091   30.5798  -77.6048 O.2       0 UNK        -0.5240 
      4 N         -83.0317   29.6704  -75.8057 N.am      1 UNK        -0.4739 
      5 CA        -81.8707   28.9689  -75.2455 C.3       1 UNK         0.0864 
      6 C6        -82.1418   28.5599  -73.7708 C.3       11 UNK        -0.0881 
      7 S7        -80.8329   27.5606  -72.9850 S.3       11 UNK        -0.2682 
      8 C8        -79.9117   28.8032  -72.0159 C.3       11 UNK         0.0289 
      9 C9        -78.6129   28.2504  -71.4282 C.ar      11 UNK        -0.0687 
     10 C10       -78.5774   26.9852  -70.8296 C.ar      11 UNK        -0.0823 
     11 C11       -77.3865   26.4714  -70.3104 C.ar      11 UNK        -0.0830 
     12 C12       -76.2253   27.2451  -70.3595 C.ar      11 UNK        -0.1021 
     13 C13       -76.2446   28.5176  -70.9378 C.ar      11 UNK        -0.0753 
     14 C14       -77.4384   29.0120  -71.4767 C.ar      11 UNK        -0.0933 
     15 C15       -74.9720   29.3524  -70.9618 C.3       11 UNK         0.0166 
     16 S16       -73.7806   28.6904  -72.1632 S.3       11 UNK        -0.2615 
     17 C17       -72.2968   29.7023  -71.8301 C.3       11 UNK        -0.0865 
     18 CA        -72.0290   30.7889  -72.9062 C.3       10 UNK         0.0862 
     19 C         -70.7042   31.5437  -72.5904 C.2       10 UNK         0.5551 
     20 N         -69.6469   31.3867  -73.3779 N.am      10 UNK        -0.7319 
     21 O         -70.6385   32.2813  -71.6102 O.2       10 UNK        -0.5018 
     22 N         -72.1289   30.2353  -74.2656 N.am      10 UNK        -0.4509 
     23 C         -72.1782   30.9343  -75.4058 C.2       10 UNK         0.4899 
     24 O         -72.1148   32.1632  -75.4568 O.2       10 UNK        -0.4839 
     25 CA        -72.3751   30.1324  -76.7077 C.3       9 UNK         0.0222 
     26 CB        -71.5394   30.6904  -77.8795 C.3       9 UNK        -0.1966 
     27 N         -72.1948   28.6812  -76.5523 N.am      9 UNK        -0.4218 
     28 C         -71.0551   28.0069  -76.3211 C.2       9 UNK         0.5020 
     29 O         -69.9557   28.5499  -76.2054 O.2       9 UNK        -0.5274 
     30 CA        -71.1421   26.4742  -76.1493 C.3       8 UNK         0.0270 
     31 CB        -70.7477   26.0749  -74.7170 C.3       8 UNK        -0.1976 
     32 N         -72.4661   25.9200  -76.4489 N.am      8 UNK        -0.4313 
     33 C         -72.9828   25.7914  -77.6814 C.2       8 UNK         0.5041 
     34 O         -72.3372   25.9978  -78.7096 O.2       8 UNK        -0.5577 
     35 CA        -74.4758   25.4183  -77.8028 C.3       7 UNK         0.0284 
     36 CB        -74.6381   23.9676  -78.2831 C.3       7 UNK        -0.1958 
     37 N         -75.2538   25.6136  -76.5743 N.am      7 UNK        -0.4454 
     38 C         -75.4241   26.7816  -75.9377 C.2       7 UNK         0.5089 
     39 O         -74.9698   27.8510  -76.3449 O.2       7 UNK        -0.5125 
     40 CA        -76.1723   26.7443  -74.5963 C.3       6 UNK         0.0408 
     41 CB        -77.6463   27.0910  -74.8067 C.3       6 UNK        -0.1791 
     42 N         -76.0711   25.4620  -73.8928 N.am      6 UNK        -0.4762 
     43 C         -74.9349   24.9286  -73.4211 C.2       6 UNK         0.5007 
     44 O         -73.8262   25.4425  -73.5689 O.2       6 UNK        -0.5032 
     45 CA        -75.0470   23.5515  -72.7384 C.3       5 UNK         0.0783 
     46 C46       -75.4619   23.6521  -71.2457 C.3       11 UNK        -0.0857 
     47 S47       -77.2650   23.7854  -70.9598 S.3       11 UNK        -0.2512 
     48 C48       -77.3681   25.0844  -69.6893 C.3       11 UNK         0.0225 
     49 N         -75.9078   22.6453  -73.5038 N.am      5 UNK        -0.4615 
     50 C         -75.5943   22.1166  -74.6929 C.2       4 UNK         0.5053 
     51 O         -74.4912   22.2378  -75.2228 O.2       4 UNK        -0.5105 
     52 CA        -76.7032   21.3412  -75.4255 C.3       4 UNK         0.0263 
     53 CB        -76.6376   19.8468  -75.0725 C.3       4 UNK        -0.1981 
     54 N         -78.0516   21.8510  -75.1481 N.am      4 UNK        -0.4224 
     55 C         -78.5052   23.0503  -75.5374 C.2       3 UNK         0.4895 
     56 O         -77.8346   23.8661  -76.1746 O.2       3 UNK        -0.5091 
     57 CA        -79.9307   23.4089  -75.1038 C.3       3 UNK         0.0250 
     58 CB        -79.9446   23.9426  -73.6591 C.3       3 UNK        -0.1996 
     59 N         -80.4830   24.4141  -76.0107 N.am      3 UNK        -0.4254 
     60 C         -81.7861   24.5822  -76.2643 C.2       2 UNK         0.5004 
     61 O         -82.6783   23.9225  -75.7263 O.2       2 UNK        -0.5226 
     62 CA        -82.1653   25.6951  -77.2567 C.3       2 UNK         0.0269 
     63 CB        -83.4214   25.3406  -78.0739 C.3       2 UNK        -0.1926 
     64 N         -82.4110   26.9361  -76.5231 N.am      2 UNK        -0.4687 
     65 C         -81.4465   27.7855  -76.1457 C.2       1 UNK         0.5165 
     66 O         -80.2725   27.6737  -76.4991 O.2       1 UNK        -0.5079 
     67 H67       -84.2564   32.0868  -77.4391 H         1 UNK         0.0900 
     68 H68       -85.1570   30.7665  -76.6913 H         1 UNK         0.0900 
     69 H69       -84.6180   30.6279  -78.3658 H         1 UNK         0.0900 
     70 H70       -83.8988   29.5634  -75.2984 H         1 UNK         0.2959 
     71 H71       -81.0329   29.6702  -75.2410 H         1 UNK         0.1079 
     72 H72       -82.3179   29.4510  -73.1661 H         1 UNK         0.0837 
     73 H73       -83.0629   27.9775  -73.7105 H         1 UNK         0.0837 
     74 H74       -80.5430   29.1677  -71.2046 H         1 UNK         0.0685 
     75 H75       -79.6997   29.6573  -72.6611 H         1 UNK         0.0685 
     76 H76       -79.4767   26.3866  -70.7827 H         1 UNK         0.1434 
     77 H77       -75.3009   26.8586  -69.9526 H         1 UNK         0.1329 
     78 H78       -77.4531   29.9934  -71.9306 H         1 UNK         0.1335 
     79 H79       -75.1917   30.3923  -71.2087 H         1 UNK         0.0680 
     80 H80       -74.5258   29.3534  -69.9662 H         1 UNK         0.0680 
     81 H81       -72.3816   30.1586  -70.8420 H         1 UNK         0.1032 
     82 H82       -71.4475   29.0188  -71.7687 H         1 UNK         0.1032 
     83 H83       -72.8249   31.5313  -72.8214 H         1 UNK         0.0461 
     84 H84       -68.7933   31.8795  -73.1681 H         1 UNK         0.3453 
     85 H85       -69.6999   30.7829  -74.1839 H         1 UNK         0.3453 
     86 H86       -72.2176   29.2321  -74.3200 H         1 UNK         0.2984 
     87 H87       -73.4254   30.2620  -76.9724 H         1 UNK         0.0554 
     88 H88       -71.6968   30.1128  -78.7903 H         1 UNK         0.0847 
     89 H89       -70.4719   30.6859  -77.6580 H         1 UNK         0.0847 
     90 H90       -71.8166   31.7219  -78.1002 H         1 UNK         0.0847 
     91 H91       -73.0647   28.1543  -76.5778 H         1 UNK         0.3141 
     92 H92       -70.4211   26.0293  -76.8382 H         1 UNK         0.0743 
     93 H93       -69.7271   26.3866  -74.4908 H         1 UNK         0.0784 
     94 H94       -71.3997   26.5377  -73.9749 H         1 UNK         0.0784 
     95 H95       -70.7939   24.9948  -74.5767 H         1 UNK         0.0784 
     96 H96       -73.0589   25.7172  -75.6511 H         1 UNK         0.3213 
     97 H97       -74.9071   26.0760  -78.5604 H         1 UNK         0.0855 
     98 H98       -74.1692   23.2619  -77.5980 H         1 UNK         0.0814 
     99 H99       -74.1715   23.8276  -79.2591 H         1 UNK         0.0814 
    100 H100      -75.6888   23.6939  -78.3835 H         1 UNK         0.0814 
    101 H101      -75.7157   24.7992  -76.1885 H         1 UNK         0.3105 
    102 H102      -75.7372   27.5079  -73.9511 H         1 UNK         0.0547 
    103 H103      -78.1335   26.3986  -75.4920 H         1 UNK         0.0837 
    104 H104      -78.1871   27.0642  -73.8655 H         1 UNK         0.0837 
    105 H105      -77.7594   28.0941  -75.2196 H         1 UNK         0.0837 
    106 H106      -76.9318   24.9572  -73.7448 H         1 UNK         0.3020 
    107 H107      -74.0384   23.1307  -72.7583 H         1 UNK         0.1245 
    108 H108      -74.9393   24.4752  -70.7548 H         1 UNK         0.0781 
    109 H109      -75.1290   22.7520  -70.7268 H         1 UNK         0.0781 
    110 H110      -76.5461   24.9820  -68.9790 H         1 UNK         0.0836 
    111 H111      -78.2824   24.9358  -69.1128 H         1 UNK         0.0836 
    112 H112      -76.8272   22.4830  -73.1200 H         1 UNK         0.3022 
    113 H113      -76.5200   21.4473  -76.4971 H         1 UNK         0.0747 
    114 H114      -77.3607   19.2702  -75.6498 H         1 UNK         0.0793 
    115 H115      -75.6505   19.4375  -75.2929 H         1 UNK         0.0793 
    116 H116      -76.8341   19.6710  -74.0141 H         1 UNK         0.0793 
    117 H117      -78.6658   21.2430  -74.6249 H         1 UNK         0.3047 
    118 H118      -80.5396   22.5039  -75.1620 H         1 UNK         0.0822 
    119 H119      -79.5732   23.1950  -72.9578 H         1 UNK         0.0807 
    120 H120      -80.9539   24.2048  -73.3415 H         1 UNK         0.0807 
    121 H121      -79.3241   24.8325  -73.5500 H         1 UNK         0.0807 
    122 H122      -79.7928   24.9823  -76.4870 H         1 UNK         0.2946 
    123 H123      -81.3394   25.8331  -77.9590 H         1 UNK         0.1144 
    124 H124      -83.2807   24.4049  -78.6166 H         1 UNK         0.0793 
    125 H125      -83.6431   26.1123  -78.8113 H         1 UNK         0.0793 
    126 H126      -84.3016   25.2213  -77.4408 H         1 UNK         0.0793 
    127 H127      -83.3506   27.0870  -76.1860 H         1 UNK         0.2896 
@<TRIPOS>BOND
     1    1    2 1    
     2    1   67 1    
     3    1   68 1    
     4    1   69 1    
     5    2    3 2    
     6    2    4 am   BACKBONE|DICT|INTERRES
     7    4    5 1    
     8    4   70 1    
     9    5    6 1    
    10    5   65 1    
    11    5   71 1    
    12    6    7 1    
    13    6   72 1    
    14    6   73 1    
    15    7    8 1    
    16    8    9 1    
    17    8   74 1    
    18    8   75 1    
    19    9   10 ar   
    20    9   14 ar   
    21   10   11 ar   
    22   10   76 1    
    23   11   12 ar   
    24   11   48 1    
    25   12   13 ar   
    26   12   77 1    
    27   13   14 ar   
    28   13   15 1    
    29   14   78 1    
    30   15   16 1    
    31   15   79 1    
    32   15   80 1    
    33   16   17 1    
    34   17   18 1    
    35   17   81 1    
    36   17   82 1    
    37   18   19 1    
    38   18   22 1    
    39   18   83 1    
    40   19   20 am   BACKBONE|DICT|INTERRES
    41   19   21 2    
    42   20   84 1    
    43   20   85 1    
    44   22   23 am   BACKBONE|DICT|INTERRES
    45   22   86 1    
    46   23   24 2    
    47   23   25 1    
    48   25   26 1    
    49   25   27 1    
    50   25   87 1    
    51   26   88 1    
    52   26   89 1    
    53   26   90 1    
    54   27   28 am   BACKBONE|DICT|INTERRES
    55   27   91 1    
    56   28   29 2    
    57   28   30 1    
    58   30   31 1    
    59   30   32 1    
    60   30   92 1    
    61   31   93 1    
    62   31   94 1    
    63   31   95 1    
    64   32   33 am   BACKBONE|DICT|INTERRES
    65   32   96 1    
    66   33   34 2    
    67   33   35 1    
    68   35   36 1    
    69   35   37 1    
    70   35   97 1    
    71   36   98 1    
    72   36   99 1    
    73   36  100 1    
    74   37   38 am   BACKBONE|DICT|INTERRES
    75   37  101 1    
    76   38   39 2    
    77   38   40 1    
    78   40   41 1    
    79   40   42 1    
    80   40  102 1    
    81   41  103 1    
    82   41  104 1    
    83   41  105 1    
    84   42   43 am   BACKBONE|DICT|INTERRES
    85   42  106 1    
    86   43   44 2    
    87   43   45 1    
    88   45   46 1    
    89   45   49 1    
    90   45  107 1    
    91   46   47 1    
    92   46  108 1    
    93   46  109 1    
    94   47   48 1    
    95   48  110 1    
    96   48  111 1    
    97   49   50 am   BACKBONE|DICT|INTERRES
    98   49  112 1    
    99   50   51 2    
   100   50   52 1    
   101   52   53 1    
   102   52   54 1    
   103   52  113 1    
   104   53  114 1    
   105   53  115 1    
   106   53  116 1    
   107   54   55 am   BACKBONE|DICT|INTERRES
   108   54  117 1    
   109   55   56 2    
   110   55   57 1    
   111   57   58 1    
   112   57   59 1    
   113   57  118 1    
   114   58  119 1    
   115   58  120 1    
   116   58  121 1    
   117   59   60 am   BACKBONE|DICT|INTERRES
   118   59  122 1    
   119   60   61 2    
   120   60   62 1    
   121   62   63 1    
   122   62   64 1    
   123   62  123 1    
   124   63  124 1    
   125   63  125 1    
   126   63  126 1    
   127   64   65 am   BACKBONE|DICT|INTERRES
   128   64  127 1    
   129   65   66 2    
@<TRIPOS>SUBSTRUCTURE
     1 UNK         1 GROUP             0       ****    0 ROOT    
