@<TRIPOS>MOLECULE
3R135
127   129    1
SMALL
USER_CHARGES


@<TRIPOS>ATOM
      1 CA        -75.6129   26.2134  -71.8973 C.3       0 UNK        -0.1998 
      2 C         -76.5014   25.1871  -71.2154 C.2       0 UNK         0.4909 
      3 O         -76.0249   24.1165  -70.8384 O.2       0 UNK        -0.5240 
      4 N         -77.7884   25.5118  -71.0445 N.am      1 UNK        -0.4739 
      5 CA        -78.7975   24.6430  -70.4267 C.3       1 UNK         0.0864 
      6 C6        -80.0378   25.4463  -69.9585 C.3       11 UNK        -0.0881 
      7 S7        -80.7929   26.4719  -71.2748 S.3       11 UNK        -0.2682 
      8 C8        -80.3272   28.1625  -70.7772 C.3       11 UNK         0.0289 
      9 C9        -79.6750   28.9373  -71.9147 C.ar      11 UNK        -0.0687 
     10 C10       -80.4041   29.2345  -73.0711 C.ar      11 UNK        -0.0823 
     11 C11       -79.8374   30.0024  -74.0924 C.ar      11 UNK        -0.0830 
     12 C12       -78.5306   30.4809  -73.9470 C.ar      11 UNK        -0.1021 
     13 C13       -77.7926   30.1966  -72.7944 C.ar      11 UNK        -0.0753 
     14 C14       -78.3651   29.4132  -71.7871 C.ar      11 UNK        -0.0933 
     15 C15       -76.4111   30.8062  -72.6012 C.3       11 UNK         0.0166 
     16 S16       -75.0667   29.6907  -73.1106 S.3       11 UNK        -0.2615 
     17 C17       -73.6235   30.7381  -72.7146 C.3       11 UNK        -0.0865 
     18 CA        -72.8165   31.1320  -73.9781 C.3       10 UNK         0.0862 
     19 C         -71.8946   32.3478  -73.6835 C.2       10 UNK         0.5551 
     20 N         -72.3650   33.5590  -73.9469 N.am      10 UNK        -0.7319 
     21 O         -70.7825   32.2055  -73.1786 O.2       10 UNK        -0.5018 
     22 N         -72.0589   29.9843  -74.4926 N.am      10 UNK        -0.4509 
     23 C         -71.4303   29.9353  -75.6712 C.2       10 UNK         0.4899 
     24 O         -71.5250   30.8149  -76.5275 O.2       10 UNK        -0.4839 
     25 CA        -70.5582   28.6998  -75.9755 C.3       9 UNK         0.0222 
     26 CB        -69.0628   29.0295  -75.7994 C.3       9 UNK        -0.1966 
     27 N         -70.9215   27.4659  -75.2579 N.am      9 UNK        -0.4218 
     28 C         -70.8420   27.1908  -73.9454 C.2       9 UNK         0.5020 
     29 O         -70.4502   28.0001  -73.1044 O.2       9 UNK        -0.5274 
     30 CA        -71.3423   25.8057  -73.4948 C.3       8 UNK         0.0270 
     31 CB        -71.7169   25.7736  -72.0007 C.3       8 UNK        -0.1976 
     32 N         -72.5096   25.4203  -74.2866 N.am      8 UNK        -0.4313 
     33 C         -72.5718   24.3995  -75.1502 C.2       8 UNK         0.5041 
     34 O         -71.6739   23.5724  -75.3093 O.2       8 UNK        -0.5577 
     35 CA        -73.8422   24.3153  -76.0155 C.3       7 UNK         0.0284 
     36 CB        -74.8634   23.3536  -75.3886 C.3       7 UNK        -0.1958 
     37 N         -74.4757   25.6210  -76.2273 N.am      7 UNK        -0.4454 
     38 C         -73.9563   26.6374  -76.9276 C.2       7 UNK         0.5089 
     39 O         -72.8772   26.5603  -77.5164 O.2       7 UNK        -0.5125 
     40 CA        -74.7427   27.9680  -76.9327 C.3       6 UNK         0.0408 
     41 CB        -74.3079   28.8994  -78.0786 C.3       6 UNK        -0.1791 
     42 N         -76.2006   27.8135  -76.9848 N.am      6 UNK        -0.4762 
     43 C         -76.9963   27.3835  -75.9972 C.2       6 UNK         0.5007 
     44 O         -76.5743   26.9556  -74.9235 O.2       6 UNK        -0.5032 
     45 CA        -78.5083   27.3727  -76.2677 C.3       5 UNK         0.0783 
     46 C46       -79.0236   28.6874  -76.9175 C.3       11 UNK        -0.0857 
     47 S47       -80.7761   28.9643  -76.5068 S.3       11 UNK        -0.2512 
     48 C48       -80.6537   30.3524  -75.3313 C.3       11 UNK         0.0225 
     49 N         -78.8913   26.1532  -76.9871 N.am      5 UNK        -0.4615 
     50 C         -78.5730   25.8087  -78.2456 C.2       4 UNK         0.5053 
     51 O         -77.9375   26.5342  -79.0117 O.2       4 UNK        -0.5105 
     52 CA        -79.0025   24.4147  -78.7474 C.3       4 UNK         0.0263 
     53 CB        -77.7700   23.5123  -78.9289 C.3       4 UNK        -0.1981 
     54 N         -79.9544   23.7364  -77.8661 N.am      4 UNK        -0.4224 
     55 C         -81.2487   24.0568  -77.7315 C.2       3 UNK         0.4895 
     56 O         -81.8227   24.8937  -78.4286 O.2       3 UNK        -0.5091 
     57 CA        -82.0326   23.3410  -76.6128 C.3       3 UNK         0.0250 
     58 CB        -82.9011   22.2172  -77.2020 C.3       3 UNK        -0.1996 
     59 N         -81.2001   22.7904  -75.5321 N.am      3 UNK        -0.4254 
     60 C         -80.3969   23.5072  -74.7332 C.2       2 UNK         0.5004 
     61 O         -80.2232   24.7234  -74.8481 O.2       2 UNK        -0.5226 
     62 CA        -79.6108   22.7271  -73.6741 C.3       2 UNK         0.0269 
     63 CB        -78.3816   22.0470  -74.3001 C.3       2 UNK        -0.1926 
     64 N         -79.1648   23.6648  -72.6497 N.am      2 UNK        -0.4687 
     65 C         -79.2002   23.4566  -71.3293 C.2       1 UNK         0.5165 
     66 O         -79.5371   22.3890  -70.8141 O.2       1 UNK        -0.5079 
     67 H67       -74.8585   26.5800  -71.2026 H         1 UNK         0.0900 
     68 H68       -76.1883   27.0670  -72.2546 H         1 UNK         0.0900 
     69 H69       -75.1091   25.7655  -72.7522 H         1 UNK         0.0900 
     70 H70       -78.1349   26.3958  -71.3907 H         1 UNK         0.2959 
     71 H71       -78.3446   24.2005  -69.5362 H         1 UNK         0.1079 
     72 H72       -80.8042   24.7728  -69.5695 H         1 UNK         0.0837 
     73 H73       -79.7631   26.0731  -69.1097 H         1 UNK         0.0837 
     74 H74       -81.2256   28.6914  -70.4563 H         1 UNK         0.0685 
     75 H75       -79.6656   28.1423  -69.9107 H         1 UNK         0.0685 
     76 H76       -81.4196   28.8753  -73.1706 H         1 UNK         0.1434 
     77 H77       -78.0931   31.0973  -74.7204 H         1 UNK         0.1329 
     78 H78       -77.8002   29.2084  -70.8879 H         1 UNK         0.1335 
     79 H79       -76.3329   31.7377  -73.1643 H         1 UNK         0.0680 
     80 H80       -76.2768   31.0721  -71.5515 H         1 UNK         0.0680 
     81 H81       -72.9883   30.2087  -72.0016 H         1 UNK         0.1032 
     82 H82       -73.9705   31.6290  -72.1871 H         1 UNK         0.1032 
     83 H83       -73.5216   31.4324  -74.7563 H         1 UNK         0.0461 
     84 H84       -71.7892   34.3622  -73.7477 H         1 UNK         0.3453 
     85 H85       -73.2786   33.6873  -74.3536 H         1 UNK         0.3453 
     86 H86       -71.8226   29.2660  -73.8185 H         1 UNK         0.2984 
     87 H87       -70.7181   28.4722  -77.0307 H         1 UNK         0.0554 
     88 H88       -68.4332   28.1852  -76.0798 H         1 UNK         0.0847 
     89 H89       -68.8234   29.3016  -74.7709 H         1 UNK         0.0847 
     90 H90       -68.7739   29.8717  -76.4296 H         1 UNK         0.0847 
     91 H91       -71.3083   26.7450  -75.8555 H         1 UNK         0.3141 
     92 H92       -70.5207   25.1047  -73.6559 H         1 UNK         0.0743 
     93 H93       -72.4664   26.5269  -71.7567 H         1 UNK         0.0784 
     94 H94       -72.1123   24.7998  -71.7109 H         1 UNK         0.0784 
     95 H95       -70.8448   25.9672  -71.3748 H         1 UNK         0.0784 
     96 H96       -73.2989   26.0498  -74.2499 H         1 UNK         0.3213 
     97 H97       -73.5491   23.9208  -76.9909 H         1 UNK         0.0855 
     98 H98       -75.2317   23.7191  -74.4290 H         1 UNK         0.0814 
     99 H99       -74.4209   22.3715  -75.2158 H         1 UNK         0.0814 
    100 H100      -75.7195   23.2088  -76.0464 H         1 UNK         0.0814 
    101 H101      -75.3427   25.8096  -75.7299 H         1 UNK         0.3105 
    102 H102      -74.4976   28.4694  -75.9941 H         1 UNK         0.0547 
    103 H103      -73.2366   29.0997  -78.0446 H         1 UNK         0.0837 
    104 H104      -74.5261   28.4639  -79.0543 H         1 UNK         0.0837 
    105 H105      -74.8120   29.8640  -78.0188 H         1 UNK         0.0837 
    106 H106      -76.6390   27.9958  -77.8793 H         1 UNK         0.3020 
    107 H107      -78.9650   27.2892  -75.2785 H         1 UNK         0.1245 
    108 H108      -78.4446   29.5501  -76.5860 H         1 UNK         0.0781 
    109 H109      -78.9210   28.6759  -78.0025 H         1 UNK         0.0781 
    110 H110      -80.2279   31.2179  -75.8416 H         1 UNK         0.0836 
    111 H111      -81.6601   30.6471  -75.0302 H         1 UNK         0.0836 
    112 H112      -79.4139   25.4925  -76.4185 H         1 UNK         0.3022 
    113 H113      -79.4741   24.5527  -79.7227 H         1 UNK         0.0747 
    114 H114      -78.0442   22.5445  -79.3493 H         1 UNK         0.0793 
    115 H115      -77.0492   23.9659  -79.6108 H         1 UNK         0.0793 
    116 H116      -77.2558   23.3360  -77.9837 H         1 UNK         0.0793 
    117 H117      -79.5798   23.0231  -77.2587 H         1 UNK         0.3047 
    118 H118      -82.6945   24.0855  -76.1651 H         1 UNK         0.0822 
    119 H119      -83.5421   21.7695  -76.4423 H         1 UNK         0.0807 
    120 H120      -82.2933   21.4247  -77.6405 H         1 UNK         0.0807 
    121 H121      -83.5543   22.5991  -77.9881 H         1 UNK         0.0807 
    122 H122      -81.2691   21.7937  -75.3812 H         1 UNK         0.2946 
    123 H123      -80.2716   21.9742  -73.2377 H         1 UNK         0.1144 
    124 H124      -78.6733   21.3135  -75.0526 H         1 UNK         0.0793 
    125 H125      -77.7945   21.5210  -73.5469 H         1 UNK         0.0793 
    126 H126      -77.7284   22.7734  -74.7835 H         1 UNK         0.0793 
    127 H127      -78.9637   24.5973  -72.9880 H         1 UNK         0.2896 
@<TRIPOS>BOND
     1    1    2 1    
     2    1   67 1    
     3    1   68 1    
     4    1   69 1    
     5    2    3 2    
     6    2    4 am   BACKBONE|DICT|INTERRES
     7    4    5 1    
     8    4   70 1    
     9    5    6 1    
    10    5   65 1    
    11    5   71 1    
    12    6    7 1    
    13    6   72 1    
    14    6   73 1    
    15    7    8 1    
    16    8    9 1    
    17    8   74 1    
    18    8   75 1    
    19    9   10 ar   
    20    9   14 ar   
    21   10   11 ar   
    22   10   76 1    
    23   11   12 ar   
    24   11   48 1    
    25   12   13 ar   
    26   12   77 1    
    27   13   14 ar   
    28   13   15 1    
    29   14   78 1    
    30   15   16 1    
    31   15   79 1    
    32   15   80 1    
    33   16   17 1    
    34   17   18 1    
    35   17   81 1    
    36   17   82 1    
    37   18   19 1    
    38   18   22 1    
    39   18   83 1    
    40   19   20 am   BACKBONE|DICT|INTERRES
    41   19   21 2    
    42   20   84 1    
    43   20   85 1    
    44   22   23 am   BACKBONE|DICT|INTERRES
    45   22   86 1    
    46   23   24 2    
    47   23   25 1    
    48   25   26 1    
    49   25   27 1    
    50   25   87 1    
    51   26   88 1    
    52   26   89 1    
    53   26   90 1    
    54   27   28 am   BACKBONE|DICT|INTERRES
    55   27   91 1    
    56   28   29 2    
    57   28   30 1    
    58   30   31 1    
    59   30   32 1    
    60   30   92 1    
    61   31   93 1    
    62   31   94 1    
    63   31   95 1    
    64   32   33 am   BACKBONE|DICT|INTERRES
    65   32   96 1    
    66   33   34 2    
    67   33   35 1    
    68   35   36 1    
    69   35   37 1    
    70   35   97 1    
    71   36   98 1    
    72   36   99 1    
    73   36  100 1    
    74   37   38 am   BACKBONE|DICT|INTERRES
    75   37  101 1    
    76   38   39 2    
    77   38   40 1    
    78   40   41 1    
    79   40   42 1    
    80   40  102 1    
    81   41  103 1    
    82   41  104 1    
    83   41  105 1    
    84   42   43 am   BACKBONE|DICT|INTERRES
    85   42  106 1    
    86   43   44 2    
    87   43   45 1    
    88   45   46 1    
    89   45   49 1    
    90   45  107 1    
    91   46   47 1    
    92   46  108 1    
    93   46  109 1    
    94   47   48 1    
    95   48  110 1    
    96   48  111 1    
    97   49   50 am   BACKBONE|DICT|INTERRES
    98   49  112 1    
    99   50   51 2    
   100   50   52 1    
   101   52   53 1    
   102   52   54 1    
   103   52  113 1    
   104   53  114 1    
   105   53  115 1    
   106   53  116 1    
   107   54   55 am   BACKBONE|DICT|INTERRES
   108   54  117 1    
   109   55   56 2    
   110   55   57 1    
   111   57   58 1    
   112   57   59 1    
   113   57  118 1    
   114   58  119 1    
   115   58  120 1    
   116   58  121 1    
   117   59   60 am   BACKBONE|DICT|INTERRES
   118   59  122 1    
   119   60   61 2    
   120   60   62 1    
   121   62   63 1    
   122   62   64 1    
   123   62  123 1    
   124   63  124 1    
   125   63  125 1    
   126   63  126 1    
   127   64   65 am   BACKBONE|DICT|INTERRES
   128   64  127 1    
   129   65   66 2    
@<TRIPOS>SUBSTRUCTURE
     1 UNK         1 GROUP             0       ****    0 ROOT    
