@<TRIPOS>MOLECULE
3R135
127   129    1
SMALL
USER_CHARGES


@<TRIPOS>ATOM
      1 CA        -77.7016   28.6020  -75.0753 C.3       0 UNK        -0.1998 
      2 C         -78.4839   29.9042  -74.9379 C.2       0 UNK         0.4909 
      3 O         -78.0328   30.9289  -75.4446 O.2       0 UNK        -0.5240 
      4 N         -79.6387   29.9323  -74.2589 N.am      1 UNK        -0.4739 
      5 CA        -80.3454   28.7993  -73.6511 C.3       1 UNK         0.0864 
      6 C6        -81.3308   29.3008  -72.5618 C.3       11 UNK        -0.0881 
      7 S7        -81.6531   28.0554  -71.2680 S.3       11 UNK        -0.2682 
      8 C8        -80.5386   28.6120  -69.9359 C.3       11 UNK         0.0289 
      9 C9        -79.0811   28.4003  -70.3147 C.ar      11 UNK        -0.0687 
     10 C10       -78.5213   27.1231  -70.2301 C.ar      11 UNK        -0.0823 
     11 C11       -77.2078   26.8964  -70.6475 C.ar      11 UNK        -0.0830 
     12 C12       -76.4442   27.9649  -71.1281 C.ar      11 UNK        -0.1021 
     13 C13       -76.9879   29.2505  -71.2050 C.ar      11 UNK        -0.0753 
     14 C14       -78.3058   29.4639  -70.7886 C.ar      11 UNK        -0.0933 
     15 C15       -76.1713   30.3938  -71.7911 C.3       11 UNK         0.0166 
     16 S16       -74.6500   30.7046  -70.8428 S.3       11 UNK        -0.2615 
     17 C17       -73.9376   32.0959  -71.7897 C.3       11 UNK        -0.0865 
     18 CA        -72.7946   31.6963  -72.7633 C.3       10 UNK         0.0862 
     19 C         -71.4817   31.2447  -72.0585 C.2       10 UNK         0.5551 
     20 N         -70.7215   30.3089  -72.6171 N.am      10 UNK        -0.7319 
     21 O         -71.1281   31.7661  -71.0036 O.2       10 UNK        -0.5018 
     22 N         -73.2517   30.7449  -73.7880 N.am      10 UNK        -0.4509 
     23 C         -73.4795   31.0332  -75.0738 C.2       10 UNK         0.4899 
     24 O         -73.4318   32.1755  -75.5334 O.2       10 UNK        -0.4839 
     25 CA        -73.8164   29.8500  -76.0094 C.3       9 UNK         0.0222 
     26 CB        -73.4036   30.1278  -77.4697 C.3       9 UNK        -0.1966 
     27 N         -73.2932   28.5413  -75.5853 N.am      9 UNK        -0.4218 
     28 C         -72.0177   28.2154  -75.3162 C.2       9 UNK         0.5020 
     29 O         -71.0874   29.0216  -75.2835 O.2       9 UNK        -0.5274 
     30 CA        -71.7355   26.7370  -75.0182 C.3       8 UNK         0.0270 
     31 CB        -72.2239   26.3584  -73.6084 C.3       8 UNK        -0.1976 
     32 N         -72.3646   25.8712  -76.0172 N.am      8 UNK        -0.4313 
     33 C         -71.7946   25.5011  -77.1734 C.2       8 UNK         0.5041 
     34 O         -70.6455   25.8051  -77.4963 O.2       8 UNK        -0.5577 
     35 CA        -72.6324   24.6360  -78.1352 C.3       7 UNK         0.0284 
     36 CB        -72.2946   23.1479  -77.9498 C.3       7 UNK        -0.1958 
     37 N         -74.0744   24.8288  -77.9666 N.am      7 UNK        -0.4454 
     38 C         -74.7474   25.9023  -78.4095 C.2       7 UNK         0.5089 
     39 O         -74.2426   26.7822  -79.1061 O.2       7 UNK        -0.5125 
     40 CA        -76.2225   26.0437  -77.9806 C.3       6 UNK         0.0408 
     41 CB        -77.1577   25.5942  -79.1128 C.3       6 UNK        -0.1791 
     42 N         -76.5572   25.3122  -76.7535 N.am      6 UNK        -0.4762 
     43 C         -75.9925   25.5371  -75.5560 C.2       6 UNK         0.5007 
     44 O         -75.1803   26.4415  -75.3583 O.2       6 UNK        -0.5032 
     45 CA        -76.3376   24.5901  -74.3892 C.3       5 UNK         0.0783 
     46 C46       -77.2652   25.3124  -73.3934 C.3       11 UNK        -0.0857 
     47 S47       -77.4811   24.3964  -71.8305 S.3       11 UNK        -0.2512 
     48 C48       -76.6335   25.4858  -70.6357 C.3       11 UNK         0.0225 
     49 N         -76.8885   23.3049  -74.8277 N.am      5 UNK        -0.4615 
     50 C         -76.2330   22.4044  -75.5732 C.2       4 UNK         0.5053 
     51 O         -75.0671   22.5510  -75.9419 O.2       4 UNK        -0.5105 
     52 CA        -77.0138   21.1588  -76.0300 C.3       4 UNK         0.0263 
     53 CB        -76.6773   19.9602  -75.1289 C.3       4 UNK        -0.1981 
     54 N         -78.4715   21.3305  -76.0799 N.am      4 UNK        -0.4224 
     55 C         -79.1316   22.2411  -76.8111 C.2       3 UNK         0.4895 
     56 O         -78.5721   23.0827  -77.5170 O.2       3 UNK        -0.5091 
     57 CA        -80.6727   22.2225  -76.7492 C.3       3 UNK         0.0250 
     58 CB        -81.2606   21.2267  -75.7211 C.3       3 UNK        -0.1996 
     59 N         -81.2302   23.5649  -76.5422 N.am      3 UNK        -0.4254 
     60 C         -81.0007   24.3789  -75.5017 C.2       2 UNK         0.5004 
     61 O         -80.2758   24.0968  -74.5443 O.2       2 UNK        -0.5226 
     62 CA        -81.7340   25.7257  -75.5280 C.3       2 UNK         0.0269 
     63 CB        -83.2188   25.5531  -75.1563 C.3       2 UNK        -0.1926 
     64 N         -81.1030   26.6536  -74.5900 N.am      2 UNK        -0.4687 
     65 C         -81.0770   27.9825  -74.7377 C.2       1 UNK         0.5165 
     66 O         -81.6085   28.5713  -75.6828 O.2       1 UNK        -0.5079 
     67 H67       -78.3396   27.7507  -75.3024 H         1 UNK         0.0900 
     68 H68       -76.9809   28.6806  -75.8877 H         1 UNK         0.0900 
     69 H69       -77.1498   28.3987  -74.1594 H         1 UNK         0.0900 
     70 H70       -80.1407   30.8078  -74.2266 H         1 UNK         0.2959 
     71 H71       -79.5980   28.1601  -73.1759 H         1 UNK         0.1079 
     72 H72       -82.2826   29.6146  -72.9959 H         1 UNK         0.0837 
     73 H73       -80.9362   30.1935  -72.0743 H         1 UNK         0.0837 
     74 H74       -80.7643   28.0500  -69.0284 H         1 UNK         0.0685 
     75 H75       -80.7338   29.6597  -69.7020 H         1 UNK         0.0685 
     76 H76       -79.1230   26.2949  -69.8806 H         1 UNK         0.1434 
     77 H77       -75.4312   27.7952  -71.4673 H         1 UNK         0.1329 
     78 H78       -78.7395   30.4515  -70.8629 H         1 UNK         0.1335 
     79 H79       -75.9116   30.1535  -72.8226 H         1 UNK         0.0680 
     80 H80       -76.7628   31.3101  -71.8254 H         1 UNK         0.0680 
     81 H81       -73.5818   32.8432  -71.0782 H         1 UNK         0.1032 
     82 H82       -74.7292   32.5954  -72.3501 H         1 UNK         0.1032 
     83 H83       -72.4922   32.6184  -73.2624 H         1 UNK         0.0461 
     84 H84       -69.8694   30.0334  -72.1557 H         1 UNK         0.3453 
     85 H85       -70.9416   29.9324  -73.5332 H         1 UNK         0.3453 
     86 H86       -73.2999   29.7817  -73.4908 H         1 UNK         0.2984 
     87 H87       -74.9022   29.7602  -75.9883 H         1 UNK         0.0554 
     88 H88       -73.8915   31.0233  -77.8564 H         1 UNK         0.0847 
     89 H89       -73.6842   29.3031  -78.1246 H         1 UNK         0.0847 
     90 H90       -72.3271   30.2761  -77.5610 H         1 UNK         0.0847 
     91 H91       -73.9876   27.7973  -75.5285 H         1 UNK         0.3141 
     92 H92       -70.6534   26.5899  -75.0443 H         1 UNK         0.0743 
     93 H93       -71.7365   26.9747  -72.8514 H         1 UNK         0.0784 
     94 H94       -73.2993   26.4920  -73.4906 H         1 UNK         0.0784 
     95 H95       -71.9901   25.3192  -73.3766 H         1 UNK         0.0784 
     96 H96       -73.3367   25.6371  -75.8619 H         1 UNK         0.3213 
     97 H97       -72.3618   24.9203  -79.1547 H         1 UNK         0.0855 
     98 H98       -72.5237   22.8036  -76.9405 H         1 UNK         0.0814 
     99 H99       -71.2330   22.9654  -78.1223 H         1 UNK         0.0814 
    100 H100      -72.8484   22.5235  -78.6511 H         1 UNK         0.0814 
    101 H101      -74.5650   24.1389  -77.4087 H         1 UNK         0.3105 
    102 H102      -76.4037   27.1036  -77.7913 H         1 UNK         0.0547 
    103 H103      -78.2040   25.7508  -78.8502 H         1 UNK         0.0837 
    104 H104      -77.0266   24.5370  -79.3471 H         1 UNK         0.0837 
    105 H105      -76.9649   26.1577  -80.0267 H         1 UNK         0.0837 
    106 H106      -77.2151   24.5444  -76.8506 H         1 UNK         0.3020 
    107 H107      -75.3932   24.3800  -73.8817 H         1 UNK         0.1245 
    108 H108      -78.2471   25.4868  -73.8324 H         1 UNK         0.0781 
    109 H109      -76.8652   26.2999  -73.1754 H         1 UNK         0.0781 
    110 H110      -75.5657   25.4974  -70.8601 H         1 UNK         0.0836 
    111 H111      -76.7327   25.0634  -69.6348 H         1 UNK         0.0836 
    112 H112      -77.8516   23.1256  -74.5763 H         1 UNK         0.3022 
    113 H113      -76.6803   20.9292  -77.0441 H         1 UNK         0.0747 
    114 H114      -77.1361   19.0428  -75.4983 H         1 UNK         0.0793 
    115 H115      -75.6003   19.7885  -75.0932 H         1 UNK         0.0793 
    116 H116      -77.0159   20.1183  -74.1041 H         1 UNK         0.0793 
    117 H117      -79.0172   20.6929  -75.5185 H         1 UNK         0.3047 
    118 H118      -81.0037   21.9045  -77.7389 H         1 UNK         0.0822 
    119 H119      -82.3503   21.2539  -75.7336 H         1 UNK         0.0807 
    120 H120      -80.9414   21.4488  -74.7019 H         1 UNK         0.0807 
    121 H121      -80.9711   20.2000  -75.9486 H         1 UNK         0.0807 
    122 H122      -81.8217   23.9022  -77.2889 H         1 UNK         0.2946 
    123 H123      -81.6561   26.1255  -76.5422 H         1 UNK         0.1144 
    124 H124      -83.3351   25.1569  -74.1467 H         1 UNK         0.0793 
    125 H125      -83.7215   24.8655  -75.8375 H         1 UNK         0.0793 
    126 H126      -83.7534   26.5019  -75.2058 H         1 UNK         0.0793 
    127 H127      -80.6337   26.2075  -73.8111 H         1 UNK         0.2896 
@<TRIPOS>BOND
     1    1    2 1    
     2    1   67 1    
     3    1   68 1    
     4    1   69 1    
     5    2    3 2    
     6    2    4 am   BACKBONE|DICT|INTERRES
     7    4    5 1    
     8    4   70 1    
     9    5    6 1    
    10    5   65 1    
    11    5   71 1    
    12    6    7 1    
    13    6   72 1    
    14    6   73 1    
    15    7    8 1    
    16    8    9 1    
    17    8   74 1    
    18    8   75 1    
    19    9   10 ar   
    20    9   14 ar   
    21   10   11 ar   
    22   10   76 1    
    23   11   12 ar   
    24   11   48 1    
    25   12   13 ar   
    26   12   77 1    
    27   13   14 ar   
    28   13   15 1    
    29   14   78 1    
    30   15   16 1    
    31   15   79 1    
    32   15   80 1    
    33   16   17 1    
    34   17   18 1    
    35   17   81 1    
    36   17   82 1    
    37   18   19 1    
    38   18   22 1    
    39   18   83 1    
    40   19   20 am   BACKBONE|DICT|INTERRES
    41   19   21 2    
    42   20   84 1    
    43   20   85 1    
    44   22   23 am   BACKBONE|DICT|INTERRES
    45   22   86 1    
    46   23   24 2    
    47   23   25 1    
    48   25   26 1    
    49   25   27 1    
    50   25   87 1    
    51   26   88 1    
    52   26   89 1    
    53   26   90 1    
    54   27   28 am   BACKBONE|DICT|INTERRES
    55   27   91 1    
    56   28   29 2    
    57   28   30 1    
    58   30   31 1    
    59   30   32 1    
    60   30   92 1    
    61   31   93 1    
    62   31   94 1    
    63   31   95 1    
    64   32   33 am   BACKBONE|DICT|INTERRES
    65   32   96 1    
    66   33   34 2    
    67   33   35 1    
    68   35   36 1    
    69   35   37 1    
    70   35   97 1    
    71   36   98 1    
    72   36   99 1    
    73   36  100 1    
    74   37   38 am   BACKBONE|DICT|INTERRES
    75   37  101 1    
    76   38   39 2    
    77   38   40 1    
    78   40   41 1    
    79   40   42 1    
    80   40  102 1    
    81   41  103 1    
    82   41  104 1    
    83   41  105 1    
    84   42   43 am   BACKBONE|DICT|INTERRES
    85   42  106 1    
    86   43   44 2    
    87   43   45 1    
    88   45   46 1    
    89   45   49 1    
    90   45  107 1    
    91   46   47 1    
    92   46  108 1    
    93   46  109 1    
    94   47   48 1    
    95   48  110 1    
    96   48  111 1    
    97   49   50 am   BACKBONE|DICT|INTERRES
    98   49  112 1    
    99   50   51 2    
   100   50   52 1    
   101   52   53 1    
   102   52   54 1    
   103   52  113 1    
   104   53  114 1    
   105   53  115 1    
   106   53  116 1    
   107   54   55 am   BACKBONE|DICT|INTERRES
   108   54  117 1    
   109   55   56 2    
   110   55   57 1    
   111   57   58 1    
   112   57   59 1    
   113   57  118 1    
   114   58  119 1    
   115   58  120 1    
   116   58  121 1    
   117   59   60 am   BACKBONE|DICT|INTERRES
   118   59  122 1    
   119   60   61 2    
   120   60   62 1    
   121   62   63 1    
   122   62   64 1    
   123   62  123 1    
   124   63  124 1    
   125   63  125 1    
   126   63  126 1    
   127   64   65 am   BACKBONE|DICT|INTERRES
   128   64  127 1    
   129   65   66 2    
@<TRIPOS>SUBSTRUCTURE
     1 UNK         1 GROUP             0       ****    0 ROOT    
