@<TRIPOS>MOLECULE
3R135
127   129    1
SMALL
USER_CHARGES


@<TRIPOS>ATOM
      1 CA        -83.8304   27.9471  -71.1174 C.3       0 UNK        -0.1998 
      2 C         -82.6405   27.7785  -72.0494 C.2       0 UNK         0.4909 
      3 O         -81.7359   27.0012  -71.7441 O.2       0 UNK        -0.5240 
      4 N         -82.6381   28.5046  -73.1770 N.am      1 UNK        -0.4739 
      5 CA        -81.6253   28.5287  -74.2474 C.3       1 UNK         0.0864 
      6 C6        -80.2021   28.9415  -73.7830 C.3       11 UNK        -0.0881 
      7 S7        -80.1482   30.6264  -73.0759 S.3       11 UNK        -0.2682 
      8 C8        -80.0120   30.3223  -71.2824 C.3       11 UNK         0.0289 
      9 C9        -78.6497   29.7676  -70.8938 C.ar      11 UNK        -0.0687 
     10 C10       -78.4716   28.3920  -70.7260 C.ar      11 UNK        -0.0823 
     11 C11       -77.2119   27.8678  -70.4193 C.ar      11 UNK        -0.0830 
     12 C12       -76.1417   28.7427  -70.2095 C.ar      11 UNK        -0.1021 
     13 C13       -76.3128   30.1245  -70.3429 C.ar      11 UNK        -0.0753 
     14 C14       -77.5676   30.6299  -70.6969 C.ar      11 UNK        -0.0933 
     15 C15       -75.1521   31.0750  -70.0782 C.3       11 UNK         0.0166 
     16 S16       -73.7016   30.7409  -71.1278 S.3       11 UNK        -0.2615 
     17 C17       -74.3155   31.1748  -72.7945 C.3       11 UNK        -0.0865 
     18 CA        -74.1698   30.0120  -73.8223 C.3       10 UNK         0.0862 
     19 C         -74.7517   30.3797  -75.2229 C.2       10 UNK         0.5551 
     20 N         -74.1628   29.9332  -76.3267 N.am      10 UNK        -0.7319 
     21 O         -75.7655   31.0674  -75.3132 O.2       10 UNK        -0.5018 
     22 N         -72.8125   29.4383  -73.8701 N.am      10 UNK        -0.4509 
     23 C         -71.6859   30.0864  -74.2001 C.2       10 UNK         0.4899 
     24 O         -71.6263   31.2911  -74.4483 O.2       10 UNK        -0.4839 
     25 CA        -70.3946   29.2491  -74.2842 C.3       9 UNK         0.0222 
     26 CB        -69.5768   29.4037  -72.9913 C.3       9 UNK        -0.1966 
     27 N         -70.6062   27.8211  -74.5531 N.am      9 UNK        -0.4218 
     28 C         -71.1991   27.3149  -75.6440 C.2       9 UNK         0.5020 
     29 O         -71.6429   28.0145  -76.5584 O.2       9 UNK        -0.5274 
     30 CA        -71.3094   25.7806  -75.7163 C.3       8 UNK         0.0270 
     31 CB        -71.6113   25.1371  -74.3469 C.3       8 UNK        -0.1976 
     32 N         -72.3761   25.4107  -76.6429 N.am      8 UNK        -0.4313 
     33 C         -72.2090   24.8845  -77.8619 C.2       8 UNK         0.5041 
     34 O         -71.1084   24.5959  -78.3360 O.2       8 UNK        -0.5577 
     35 CA        -73.4729   24.6045  -78.6997 C.3       7 UNK         0.0284 
     36 CB        -73.7202   23.0898  -78.7997 C.3       7 UNK        -0.1958 
     37 N         -74.6816   25.2471  -78.1770 N.am      7 UNK        -0.4454 
     38 C         -74.9591   26.5545  -78.2709 C.2       7 UNK         0.5089 
     39 O         -74.2697   27.3576  -78.8989 O.2       7 UNK        -0.5125 
     40 CA        -76.2062   27.0550  -77.5196 C.3       6 UNK         0.0408 
     41 CB        -77.4456   26.9807  -78.4235 C.3       6 UNK        -0.1791 
     42 N         -76.4731   26.3369  -76.2694 N.am      6 UNK        -0.4762 
     43 C         -75.6551   26.2913  -75.2061 C.2       6 UNK         0.5007 
     44 O         -74.5509   26.8307  -75.1621 O.2       6 UNK        -0.5032 
     45 CA        -76.1443   25.4773  -73.9978 C.3       5 UNK         0.0783 
     46 C46       -77.1790   26.2936  -73.1905 C.3       11 UNK        -0.0857 
     47 S47       -77.7762   25.4240  -71.6994 S.3       11 UNK        -0.2512 
     48 C48       -76.9862   26.3599  -70.3406 C.3       11 UNK         0.0225 
     49 N         -76.6619   24.1839  -74.4453 N.am      5 UNK        -0.4615 
     50 C         -75.8932   23.1421  -74.7883 C.2       4 UNK         0.5053 
     51 O         -74.6666   23.1357  -74.6903 O.2       4 UNK        -0.5105 
     52 CA        -76.6080   21.9006  -75.3513 C.3       4 UNK         0.0263 
     53 CB        -76.9620   20.9259  -74.2170 C.3       4 UNK        -0.1981 
     54 N         -77.8198   22.2229  -76.1098 N.am      4 UNK        -0.4224 
     55 C         -77.8362   22.9051  -77.2641 C.2       3 UNK         0.4895 
     56 O         -76.8248   23.3035  -77.8394 O.2       3 UNK        -0.5091 
     57 CA        -79.2180   23.2471  -77.8480 C.3       3 UNK         0.0250 
     58 CB        -79.7331   22.0937  -78.7233 C.3       3 UNK        -0.1996 
     59 N         -80.2253   23.5858  -76.8349 N.am      3 UNK        -0.4254 
     60 C         -80.1102   24.5756  -75.9379 C.2       2 UNK         0.5004 
     61 O         -79.1108   25.2905  -75.8324 O.2       2 UNK        -0.5226 
     62 CA        -81.2810   24.7412  -74.9552 C.3       2 UNK         0.0269 
     63 CB        -81.1425   23.7381  -73.7979 C.3       2 UNK        -0.1926 
     64 N         -81.3644   26.0885  -74.3889 N.am      2 UNK        -0.4687 
     65 C         -81.5967   27.2198  -75.0657 C.2       1 UNK         0.5165 
     66 O         -81.8181   27.2583  -76.2773 O.2       1 UNK        -0.5079 
     67 H67       -84.3411   26.9935  -70.9863 H         1 UNK         0.0900 
     68 H68       -84.5513   28.6690  -71.5005 H         1 UNK         0.0900 
     69 H69       -83.4933   28.2905  -70.1398 H         1 UNK         0.0900 
     70 H70       -83.4313   29.1059  -73.3527 H         1 UNK         0.2959 
     71 H71       -81.9651   29.2992  -74.9421 H         1 UNK         0.1079 
     72 H72       -79.5142   28.9322  -74.6310 H         1 UNK         0.0837 
     73 H73       -79.7994   28.2181  -73.0769 H         1 UNK         0.0837 
     74 H74       -80.1821   31.2633  -70.7573 H         1 UNK         0.0685 
     75 H75       -80.8060   29.6515  -70.9563 H         1 UNK         0.0685 
     76 H76       -79.3082   27.7219  -70.8710 H         1 UNK         0.1434 
     77 H77       -75.1665   28.3515  -69.9528 H         1 UNK         0.1329 
     78 H78       -77.7077   31.6958  -70.8143 H         1 UNK         0.1335 
     79 H79       -74.8549   30.9785  -69.0331 H         1 UNK         0.0680 
     80 H80       -75.4555   32.1143  -70.2149 H         1 UNK         0.0680 
     81 H81       -73.7788   32.0604  -73.1374 H         1 UNK         0.1032 
     82 H82       -75.3618   31.4763  -72.7206 H         1 UNK         0.1032 
     83 H83       -74.8050   29.1988  -73.4688 H         1 UNK         0.0461 
     84 H84       -74.5460   30.1744  -77.2256 H         1 UNK         0.3453 
     85 H85       -73.3540   29.3258  -76.2699 H         1 UNK         0.3453 
     86 H86       -72.7633   28.4409  -73.7258 H         1 UNK         0.2984 
     87 H87       -69.8041   29.6503  -75.1104 H         1 UNK         0.0554 
     88 H88       -68.6131   28.8994  -73.0648 H         1 UNK         0.0847 
     89 H89       -70.1064   28.9987  -72.1279 H         1 UNK         0.0847 
     90 H90       -69.3735   30.4551  -72.7821 H         1 UNK         0.0847 
     91 H91       -70.2699   27.1772  -73.8517 H         1 UNK         0.3141 
     92 H92       -70.3487   25.4021  -76.0707 H         1 UNK         0.0743 
     93 H93       -70.7733   25.2416  -73.6574 H         1 UNK         0.0784 
     94 H94       -72.4898   25.5784  -73.8745 H         1 UNK         0.0784 
     95 H95       -71.8004   24.0680  -74.4502 H         1 UNK         0.0784 
     96 H96       -73.3041   25.7136  -76.3677 H         1 UNK         0.3213 
     97 H97       -73.2870   24.9884  -79.7050 H         1 UNK         0.0855 
     98 H98       -72.8487   22.5745  -79.2057 H         1 UNK         0.0814 
     99 H99       -74.5614   22.8679  -79.4567 H         1 UNK         0.0814 
    100 H100      -73.9339   22.6531  -77.8230 H         1 UNK         0.0814 
    101 H101      -75.3633   24.6402  -77.7296 H         1 UNK         0.3105 
    102 H102      -76.0409   28.1016  -77.2608 H         1 UNK         0.0547 
    103 H103      -77.3084   27.5835  -79.3221 H         1 UNK         0.0837 
    104 H104      -77.6451   25.9590  -78.7451 H         1 UNK         0.0837 
    105 H105      -78.3350   27.3528  -77.9141 H         1 UNK         0.0837 
    106 H106      -77.3803   25.8795  -76.1938 H         1 UNK         0.3020 
    107 H107      -75.2799   25.3002  -73.3532 H         1 UNK         0.1245 
    108 H108      -76.7513   27.2581  -72.9144 H         1 UNK         0.0781 
    109 H109      -78.0522   26.5268  -73.8012 H         1 UNK         0.0781 
    110 H110      -75.9190   26.1326  -70.3477 H         1 UNK         0.0836 
    111 H111      -77.3737   25.9946  -69.3889 H         1 UNK         0.0836 
    112 H112      -77.6590   24.1382  -74.6041 H         1 UNK         0.3022 
    113 H113      -75.9123   21.4012  -76.0293 H         1 UNK         0.0747 
    114 H114      -77.3962   20.0044  -74.6054 H         1 UNK         0.0793 
    115 H115      -76.0720   20.6486  -73.6501 H         1 UNK         0.0793 
    116 H116      -77.6722   21.3637  -73.5141 H         1 UNK         0.0793 
    117 H117      -78.7010   21.9349  -75.7108 H         1 UNK         0.3047 
    118 H118      -79.0943   24.1241  -78.4853 H         1 UNK         0.0822 
    119 H119      -80.6602   22.3627  -79.2300 H         1 UNK         0.0807 
    120 H120      -79.9184   21.1916  -78.1388 H         1 UNK         0.0807 
    121 H121      -79.0073   21.8374  -79.4967 H         1 UNK         0.0807 
    122 H122      -81.0714   23.0340  -76.8430 H         1 UNK         0.2946 
    123 H123      -82.2126   24.5476  -75.4914 H         1 UNK         0.1144 
    124 H124      -81.9810   23.8149  -73.1051 H         1 UNK         0.0793 
    125 H125      -80.2259   23.9050  -73.2298 H         1 UNK         0.0793 
    126 H126      -81.1198   22.7103  -74.1622 H         1 UNK         0.0793 
    127 H127      -81.2433   26.1757  -73.3832 H         1 UNK         0.2896 
@<TRIPOS>BOND
     1    1    2 1    
     2    1   67 1    
     3    1   68 1    
     4    1   69 1    
     5    2    3 2    
     6    2    4 am   BACKBONE|DICT|INTERRES
     7    4    5 1    
     8    4   70 1    
     9    5    6 1    
    10    5   65 1    
    11    5   71 1    
    12    6    7 1    
    13    6   72 1    
    14    6   73 1    
    15    7    8 1    
    16    8    9 1    
    17    8   74 1    
    18    8   75 1    
    19    9   10 ar   
    20    9   14 ar   
    21   10   11 ar   
    22   10   76 1    
    23   11   12 ar   
    24   11   48 1    
    25   12   13 ar   
    26   12   77 1    
    27   13   14 ar   
    28   13   15 1    
    29   14   78 1    
    30   15   16 1    
    31   15   79 1    
    32   15   80 1    
    33   16   17 1    
    34   17   18 1    
    35   17   81 1    
    36   17   82 1    
    37   18   19 1    
    38   18   22 1    
    39   18   83 1    
    40   19   20 am   BACKBONE|DICT|INTERRES
    41   19   21 2    
    42   20   84 1    
    43   20   85 1    
    44   22   23 am   BACKBONE|DICT|INTERRES
    45   22   86 1    
    46   23   24 2    
    47   23   25 1    
    48   25   26 1    
    49   25   27 1    
    50   25   87 1    
    51   26   88 1    
    52   26   89 1    
    53   26   90 1    
    54   27   28 am   BACKBONE|DICT|INTERRES
    55   27   91 1    
    56   28   29 2    
    57   28   30 1    
    58   30   31 1    
    59   30   32 1    
    60   30   92 1    
    61   31   93 1    
    62   31   94 1    
    63   31   95 1    
    64   32   33 am   BACKBONE|DICT|INTERRES
    65   32   96 1    
    66   33   34 2    
    67   33   35 1    
    68   35   36 1    
    69   35   37 1    
    70   35   97 1    
    71   36   98 1    
    72   36   99 1    
    73   36  100 1    
    74   37   38 am   BACKBONE|DICT|INTERRES
    75   37  101 1    
    76   38   39 2    
    77   38   40 1    
    78   40   41 1    
    79   40   42 1    
    80   40  102 1    
    81   41  103 1    
    82   41  104 1    
    83   41  105 1    
    84   42   43 am   BACKBONE|DICT|INTERRES
    85   42  106 1    
    86   43   44 2    
    87   43   45 1    
    88   45   46 1    
    89   45   49 1    
    90   45  107 1    
    91   46   47 1    
    92   46  108 1    
    93   46  109 1    
    94   47   48 1    
    95   48  110 1    
    96   48  111 1    
    97   49   50 am   BACKBONE|DICT|INTERRES
    98   49  112 1    
    99   50   51 2    
   100   50   52 1    
   101   52   53 1    
   102   52   54 1    
   103   52  113 1    
   104   53  114 1    
   105   53  115 1    
   106   53  116 1    
   107   54   55 am   BACKBONE|DICT|INTERRES
   108   54  117 1    
   109   55   56 2    
   110   55   57 1    
   111   57   58 1    
   112   57   59 1    
   113   57  118 1    
   114   58  119 1    
   115   58  120 1    
   116   58  121 1    
   117   59   60 am   BACKBONE|DICT|INTERRES
   118   59  122 1    
   119   60   61 2    
   120   60   62 1    
   121   62   63 1    
   122   62   64 1    
   123   62  123 1    
   124   63  124 1    
   125   63  125 1    
   126   63  126 1    
   127   64   65 am   BACKBONE|DICT|INTERRES
   128   64  127 1    
   129   65   66 2    
@<TRIPOS>SUBSTRUCTURE
     1 UNK         1 GROUP             0       ****    0 ROOT    
