@<TRIPOS>MOLECULE
3R135
127   129    1
SMALL
USER_CHARGES


@<TRIPOS>ATOM
      1 CA        -83.9971   24.6336  -74.4873 C.3       0 UNK        -0.1998 
      2 C         -82.8557   25.5548  -74.0865 C.2       0 UNK         0.4909 
      3 O         -81.7111   25.1071  -74.0201 O.2       0 UNK        -0.5240 
      4 N         -83.1567   26.8365  -73.8293 N.am      1 UNK        -0.4739 
      5 CA        -82.2090   27.8902  -73.4397 C.3       1 UNK         0.0864 
      6 C6        -81.7031   27.7052  -71.9804 C.3       11 UNK        -0.0881 
      7 S7        -81.1883   29.2902  -71.2435 S.3       11 UNK        -0.2682 
      8 C8        -79.9142   28.7560  -70.0567 C.3       11 UNK         0.0289 
      9 C9        -78.5728   28.4350  -70.7073 C.ar      11 UNK        -0.0687 
     10 C10       -77.9202   27.2347  -70.4109 C.ar      11 UNK        -0.0823 
     11 C11       -76.6471   26.9715  -70.9252 C.ar      11 UNK        -0.0830 
     12 C12       -76.0333   27.9106  -71.7581 C.ar      11 UNK        -0.1021 
     13 C13       -76.6807   29.1096  -72.0818 C.ar      11 UNK        -0.0753 
     14 C14       -77.9453   29.3660  -71.5424 C.ar      11 UNK        -0.0933 
     15 C15       -76.0184   30.1681  -72.9605 C.3       11 UNK         0.0166 
     16 S16       -74.9771   29.4826  -74.2927 S.3       11 UNK        -0.2615 
     17 C17       -74.4457   30.9984  -75.1645 C.3       11 UNK        -0.0865 
     18 CA        -73.1178   31.6200  -74.6480 C.3       10 UNK         0.0862 
     19 C         -73.3171   32.4429  -73.3412 C.2       10 UNK         0.5551 
     20 N         -72.6859   32.0901  -72.2278 N.am      10 UNK        -0.7319 
     21 O         -74.0539   33.4259  -73.3433 O.2       10 UNK        -0.5018 
     22 N         -72.0269   30.6336  -74.6067 N.am      10 UNK        -0.4509 
     23 C         -70.7200   30.9205  -74.6117 C.2       10 UNK         0.4899 
     24 O         -70.2779   32.0665  -74.6971 O.2       10 UNK        -0.4839 
     25 CA        -69.7202   29.7497  -74.5215 C.3       9 UNK         0.0222 
     26 CB        -69.3192   29.4780  -73.0578 C.3       9 UNK        -0.1966 
     27 N         -70.1367   28.5174  -75.2100 N.am      9 UNK        -0.4218 
     28 C         -71.1427   27.6858  -74.9072 C.2       9 UNK         0.5020 
     29 O         -71.8874   27.8218  -73.9345 O.2       9 UNK        -0.5274 
     30 CA        -71.3700   26.5132  -75.8726 C.3       8 UNK         0.0270 
     31 CB        -71.0272   25.1760  -75.1971 C.3       8 UNK        -0.1976 
     32 N         -72.7550   26.4858  -76.3450 N.am      8 UNK        -0.4313 
     33 C         -73.3058   27.4185  -77.1389 C.2       8 UNK         0.5041 
     34 O         -72.6766   28.3798  -77.5868 O.2       8 UNK        -0.5577 
     35 CA        -74.7987   27.2550  -77.4998 C.3       7 UNK         0.0284 
     36 CB        -75.1853   27.9697  -78.8109 C.3       7 UNK        -0.1958 
     37 N         -75.2555   25.8624  -77.5142 N.am      7 UNK        -0.4454 
     38 C         -74.7722   24.8445  -78.2428 C.2       7 UNK         0.5089 
     39 O         -73.9155   24.9737  -79.1189 O.2       7 UNK        -0.5125 
     40 CA        -75.3223   23.4393  -77.9152 C.3       6 UNK         0.0408 
     41 CB        -74.2966   22.3253  -78.2109 C.3       6 UNK        -0.1791 
     42 N         -75.8402   23.3046  -76.5456 N.am      6 UNK        -0.4762 
     43 C         -75.1807   23.5124  -75.3906 C.2       6 UNK         0.5007 
     44 O         -73.9983   23.8529  -75.3450 O.2       6 UNK        -0.5032 
     45 CA        -75.9708   23.3558  -74.0719 C.3       5 UNK         0.0783 
     46 C46       -75.6793   24.5186  -73.0880 C.3       11 UNK        -0.0857 
     47 S47       -76.4991   24.2564  -71.4794 S.3       11 UNK        -0.2512 
     48 C48       -75.9148   25.6955  -70.5358 C.3       11 UNK         0.0225 
     49 N         -77.4052   23.2449  -74.3419 N.am      5 UNK        -0.4615 
     50 C         -78.1254   22.1186  -74.3182 C.2       4 UNK         0.5053 
     51 O         -77.6651   21.0155  -74.0235 O.2       4 UNK        -0.5105 
     52 CA        -79.6110   22.2370  -74.7084 C.3       4 UNK         0.0263 
     53 CB        -80.4960   22.2012  -73.4525 C.3       4 UNK        -0.1981 
     54 N         -79.9175   23.4432  -75.4891 N.am      4 UNK        -0.4224 
     55 C         -79.4800   23.6623  -76.7385 C.2       3 UNK         0.4895 
     56 O         -78.7969   22.8557  -77.3700 O.2       3 UNK        -0.5091 
     57 CA        -79.8039   25.0229  -77.3766 C.3       3 UNK         0.0250 
     58 CB        -81.2238   25.0197  -77.9639 C.3       3 UNK        -0.1996 
     59 N         -79.6561   26.1659  -76.4722 N.am      3 UNK        -0.4254 
     60 C         -78.5530   26.5170  -75.7990 C.2       2 UNK         0.5004 
     61 O         -77.5094   25.8665  -75.8192 O.2       2 UNK        -0.5226 
     62 CA        -78.6154   27.7944  -74.9423 C.3       2 UNK         0.0269 
     63 CB        -78.3839   29.0542  -75.7986 C.3       2 UNK        -0.1926 
     64 N         -79.8278   27.9049  -74.1178 N.am      2 UNK        -0.4687 
     65 C         -81.1029   28.0484  -74.5096 C.2       1 UNK         0.5165 
     66 O         -81.4390   28.2331  -75.6821 O.2       1 UNK        -0.5079 
     67 H67       -83.8043   24.2027  -75.4692 H         1 UNK         0.0900 
     68 H68       -84.0872   23.8183  -73.7701 H         1 UNK         0.0900 
     69 H69       -84.9512   25.1586  -74.5274 H         1 UNK         0.0900 
     70 H70       -84.1131   27.1439  -73.9405 H         1 UNK         0.2959 
     71 H71       -82.7850   28.8165  -73.4805 H         1 UNK         0.1079 
     72 H72       -80.9141   26.9542  -71.9077 H         1 UNK         0.0837 
     73 H73       -82.5148   27.3269  -71.3569 H         1 UNK         0.0837 
     74 H74       -80.2920   27.9036  -69.4897 H         1 UNK         0.0685 
     75 H75       -79.7593   29.5581  -69.3340 H         1 UNK         0.0685 
     76 H76       -78.3871   26.5141  -69.7530 H         1 UNK         0.1434 
     77 H77       -75.0422   27.7110  -72.1423 H         1 UNK         0.1329 
     78 H78       -78.4400   30.3030  -71.7592 H         1 UNK         0.1335 
     79 H79       -76.7778   30.8086  -73.4114 H         1 UNK         0.0680 
     80 H80       -75.4115   30.8045  -72.3174 H         1 UNK         0.0680 
     81 H81       -75.2543   31.7319  -75.1588 H         1 UNK         0.1032 
     82 H82       -74.3169   30.7278  -76.2138 H         1 UNK         0.1032 
     83 H83       -72.8261   32.3621  -75.3937 H         1 UNK         0.0461 
     84 H84       -72.8167   32.6334  -71.3894 H         1 UNK         0.3453 
     85 H85       -72.0873   31.2805  -72.2201 H         1 UNK         0.3453 
     86 H86       -72.3032   29.6656  -74.4701 H         1 UNK         0.2984 
     87 H87       -68.8206   30.0775  -75.0450 H         1 UNK         0.0554 
     88 H88       -68.5575   28.7012  -72.9927 H         1 UNK         0.0847 
     89 H89       -70.1688   29.1659  -72.4499 H         1 UNK         0.0847 
     90 H90       -68.9059   30.3756  -72.5958 H         1 UNK         0.0847 
     91 H91       -69.6239   28.3225  -76.0594 H         1 UNK         0.3141 
     92 H92       -70.7225   26.6306  -76.7441 H         1 UNK         0.0743 
     93 H93       -69.9873   25.1589  -74.8685 H         1 UNK         0.0784 
     94 H94       -71.1670   24.3383  -75.8809 H         1 UNK         0.0784 
     95 H95       -71.6502   24.9975  -74.3194 H         1 UNK         0.0784 
     96 H96       -73.3286   25.7168  -76.0144 H         1 UNK         0.3213 
     97 H97       -75.3499   27.7350  -76.6912 H         1 UNK         0.0855 
     98 H98       -74.6312   27.5756  -79.6632 H         1 UNK         0.0814 
     99 H99       -74.9748   29.0382  -78.7509 H         1 UNK         0.0814 
    100 H100      -76.2494   27.8625  -79.0213 H         1 UNK         0.0814 
    101 H101      -75.9928   25.6513  -76.8423 H         1 UNK         0.3105 
    102 H102      -76.1766   23.2887  -78.5764 H         1 UNK         0.0547 
    103 H103      -74.7049   21.3400  -77.9870 H         1 UNK         0.0837 
    104 H104      -73.3841   22.4518  -77.6275 H         1 UNK         0.0837 
    105 H105      -74.0112   22.3231  -79.2635 H         1 UNK         0.0837 
    106 H106      -76.8238   23.0656  -76.4880 H         1 UNK         0.3020 
    107 H107      -75.6078   22.4321  -73.6158 H         1 UNK         0.1245 
    108 H108      -76.0110   25.4714  -73.5053 H         1 UNK         0.0781 
    109 H109      -74.6070   24.6153  -72.9068 H         1 UNK         0.0781 
    110 H110      -74.8374   25.8085  -70.6669 H         1 UNK         0.0836 
    111 H111      -76.0691   25.5023  -69.4732 H         1 UNK         0.0836 
    112 H112      -77.8524   24.1049  -74.6346 H         1 UNK         0.3022 
    113 H113      -79.8563   21.3684  -75.3231 H         1 UNK         0.0747 
    114 H114      -81.5546   22.2241  -73.7119 H         1 UNK         0.0793 
    115 H115      -80.3224   21.2914  -72.8763 H         1 UNK         0.0793 
    116 H116      -80.2936   23.0480  -72.7951 H         1 UNK         0.0793 
    117 H117      -80.4851   24.1522  -75.0252 H         1 UNK         0.3047 
    118 H118      -79.0966   25.1718  -78.1952 H         1 UNK         0.0822 
    119 H119      -81.4256   25.9368  -78.5178 H         1 UNK         0.0807 
    120 H120      -81.9815   24.9259  -77.1853 H         1 UNK         0.0807 
    121 H121      -81.3600   24.1874  -78.6560 H         1 UNK         0.0807 
    122 H122      -80.4610   26.7782  -76.3700 H         1 UNK         0.2946 
    123 H123      -77.7850   27.7226  -74.2387 H         1 UNK         0.1144 
    124 H124      -78.3756   29.9532  -75.1830 H         1 UNK         0.0793 
    125 H125      -79.1483   29.1793  -76.5655 H         1 UNK         0.0793 
    126 H126      -77.4220   29.0044  -76.3095 H         1 UNK         0.0793 
    127 H127      -79.6718   27.7652  -73.1285 H         1 UNK         0.2896 
@<TRIPOS>BOND
     1    1    2 1    
     2    1   67 1    
     3    1   68 1    
     4    1   69 1    
     5    2    3 2    
     6    2    4 am   BACKBONE|DICT|INTERRES
     7    4    5 1    
     8    4   70 1    
     9    5    6 1    
    10    5   65 1    
    11    5   71 1    
    12    6    7 1    
    13    6   72 1    
    14    6   73 1    
    15    7    8 1    
    16    8    9 1    
    17    8   74 1    
    18    8   75 1    
    19    9   10 ar   
    20    9   14 ar   
    21   10   11 ar   
    22   10   76 1    
    23   11   12 ar   
    24   11   48 1    
    25   12   13 ar   
    26   12   77 1    
    27   13   14 ar   
    28   13   15 1    
    29   14   78 1    
    30   15   16 1    
    31   15   79 1    
    32   15   80 1    
    33   16   17 1    
    34   17   18 1    
    35   17   81 1    
    36   17   82 1    
    37   18   19 1    
    38   18   22 1    
    39   18   83 1    
    40   19   20 am   BACKBONE|DICT|INTERRES
    41   19   21 2    
    42   20   84 1    
    43   20   85 1    
    44   22   23 am   BACKBONE|DICT|INTERRES
    45   22   86 1    
    46   23   24 2    
    47   23   25 1    
    48   25   26 1    
    49   25   27 1    
    50   25   87 1    
    51   26   88 1    
    52   26   89 1    
    53   26   90 1    
    54   27   28 am   BACKBONE|DICT|INTERRES
    55   27   91 1    
    56   28   29 2    
    57   28   30 1    
    58   30   31 1    
    59   30   32 1    
    60   30   92 1    
    61   31   93 1    
    62   31   94 1    
    63   31   95 1    
    64   32   33 am   BACKBONE|DICT|INTERRES
    65   32   96 1    
    66   33   34 2    
    67   33   35 1    
    68   35   36 1    
    69   35   37 1    
    70   35   97 1    
    71   36   98 1    
    72   36   99 1    
    73   36  100 1    
    74   37   38 am   BACKBONE|DICT|INTERRES
    75   37  101 1    
    76   38   39 2    
    77   38   40 1    
    78   40   41 1    
    79   40   42 1    
    80   40  102 1    
    81   41  103 1    
    82   41  104 1    
    83   41  105 1    
    84   42   43 am   BACKBONE|DICT|INTERRES
    85   42  106 1    
    86   43   44 2    
    87   43   45 1    
    88   45   46 1    
    89   45   49 1    
    90   45  107 1    
    91   46   47 1    
    92   46  108 1    
    93   46  109 1    
    94   47   48 1    
    95   48  110 1    
    96   48  111 1    
    97   49   50 am   BACKBONE|DICT|INTERRES
    98   49  112 1    
    99   50   51 2    
   100   50   52 1    
   101   52   53 1    
   102   52   54 1    
   103   52  113 1    
   104   53  114 1    
   105   53  115 1    
   106   53  116 1    
   107   54   55 am   BACKBONE|DICT|INTERRES
   108   54  117 1    
   109   55   56 2    
   110   55   57 1    
   111   57   58 1    
   112   57   59 1    
   113   57  118 1    
   114   58  119 1    
   115   58  120 1    
   116   58  121 1    
   117   59   60 am   BACKBONE|DICT|INTERRES
   118   59  122 1    
   119   60   61 2    
   120   60   62 1    
   121   62   63 1    
   122   62   64 1    
   123   62  123 1    
   124   63  124 1    
   125   63  125 1    
   126   63  126 1    
   127   64   65 am   BACKBONE|DICT|INTERRES
   128   64  127 1    
   129   65   66 2    
@<TRIPOS>SUBSTRUCTURE
     1 UNK         1 GROUP             0       ****    0 ROOT    
