@<TRIPOS>MOLECULE
3R135
127   129    1
SMALL
USER_CHARGES


@<TRIPOS>ATOM
      1 CA        -84.7825   25.3310  -69.0007 C.3       0 UNK        -0.1998 
      2 C         -84.5323   26.1277  -70.2723 C.2       0 UNK         0.4909 
      3 O         -85.4422   26.2810  -71.0875 O.2       0 UNK        -0.5240 
      4 N         -83.3067   26.6401  -70.4428 N.am      1 UNK        -0.4739 
      5 CA        -82.8555   27.3943  -71.6195 C.3       1 UNK         0.0864 
      6 C6        -81.5178   28.1367  -71.3575 C.3       11 UNK        -0.0881 
      7 S7        -80.2248   27.1359  -70.5265 S.3       11 UNK        -0.2682 
      8 C8        -79.0744   26.7208  -71.8760 C.3       11 UNK         0.0289 
      9 C9        -78.3252   27.9389  -72.3934 C.ar      11 UNK        -0.0687 
     10 C10       -78.7569   28.5857  -73.5537 C.ar      11 UNK        -0.0823 
     11 C11       -78.0752   29.7048  -74.0398 C.ar      11 UNK        -0.0830 
     12 C12       -76.9447   30.1695  -73.3623 C.ar      11 UNK        -0.1021 
     13 C13       -76.4990   29.5265  -72.2037 C.ar      11 UNK        -0.0753 
     14 C14       -77.1941   28.4125  -71.7220 C.ar      11 UNK        -0.0933 
     15 C15       -75.2707   30.0394  -71.4704 C.3       11 UNK         0.0166 
     16 S16       -73.7961   29.0785  -71.9208 S.3       11 UNK        -0.2615 
     17 C17       -72.4894   30.0164  -71.0591 C.3       11 UNK        -0.0865 
     18 CA        -71.5590   30.7753  -72.0418 C.3       10 UNK         0.0862 
     19 C         -70.5933   31.7194  -71.2651 C.2       10 UNK         0.5551 
     20 N         -69.2834   31.5048  -71.2924 N.am      10 UNK        -0.7319 
     21 O         -71.0455   32.6674  -70.6278 O.2       10 UNK        -0.5018 
     22 N         -70.9009   29.8512  -72.9827 N.am      10 UNK        -0.4509 
     23 C         -70.3222   30.2053  -74.1379 C.2       10 UNK         0.4899 
     24 O         -70.2884   31.3606  -74.5625 O.2       10 UNK        -0.4839 
     25 CA        -69.6516   29.0877  -74.9578 C.3       9 UNK         0.0222 
     26 CB        -68.1369   29.0679  -74.6930 C.3       9 UNK        -0.1966 
     27 N         -70.2060   27.7566  -74.6879 N.am      9 UNK        -0.4218 
     28 C         -71.3665   27.3070  -75.1834 C.2       9 UNK         0.5020 
     29 O         -72.0934   27.9594  -75.9354 O.2       9 UNK        -0.5274 
     30 CA        -71.7967   25.9030  -74.7310 C.3       8 UNK         0.0270 
     31 CB        -72.7753   25.9882  -73.5490 C.3       8 UNK        -0.1976 
     32 N         -72.4329   25.1592  -75.8163 N.am      8 UNK        -0.4313 
     33 C         -71.7776   24.5792  -76.8290 C.2       8 UNK         0.5041 
     34 O         -70.5538   24.6235  -76.9659 O.2       8 UNK        -0.5577 
     35 CA        -72.6168   23.7912  -77.8443 C.3       7 UNK         0.0284 
     36 CB        -73.0546   22.4424  -77.2472 C.3       7 UNK        -0.1958 
     37 N         -73.8043   24.5345  -78.2692 N.am      7 UNK        -0.4454 
     38 C         -73.9824   25.0568  -79.4903 C.2       7 UNK         0.5089 
     39 O         -73.1339   25.0135  -80.3823 O.2       7 UNK        -0.5125 
     40 CA        -75.3432   25.7114  -79.8000 C.3       6 UNK         0.0408 
     41 CB        -76.1902   24.7825  -80.6849 C.3       6 UNK        -0.1791 
     42 N         -76.1177   26.0574  -78.6070 N.am      6 UNK        -0.4762 
     43 C         -75.8657   27.1127  -77.8167 C.2       6 UNK         0.5007 
     44 O         -74.9695   27.9260  -78.0396 O.2       6 UNK        -0.5032 
     45 CA        -76.7635   27.2819  -76.5671 C.3       5 UNK         0.0783 
     46 C46       -77.9858   28.1755  -76.9123 C.3       11 UNK        -0.0857 
     47 S47       -77.6061   29.9533  -76.7635 S.3       11 UNK        -0.2512 
     48 C48       -78.5674   30.4188  -75.2899 C.3       11 UNK         0.0225 
     49 N         -77.2015   26.0078  -75.9803 N.am      5 UNK        -0.4615 
     50 C         -76.4287   24.9568  -75.6679 C.2       4 UNK         0.5053 
     51 O         -75.2004   24.9710  -75.7242 O.2       4 UNK        -0.5105 
     52 CA        -77.1337   23.6350  -75.3080 C.3       4 UNK         0.0263 
     53 CB        -77.0870   23.4089  -73.7887 C.3       4 UNK        -0.1981 
     54 N         -78.5256   23.5408  -75.7628 N.am      4 UNK        -0.4224 
     55 C         -78.9829   23.7168  -77.0126 C.2       3 UNK         0.4895 
     56 O         -78.2468   23.8972  -77.9845 O.2       3 UNK        -0.5091 
     57 CA        -80.5134   23.7547  -77.2152 C.3       3 UNK         0.0250 
     58 CB        -80.9606   22.6166  -78.1482 C.3       3 UNK        -0.1996 
     59 N         -81.3193   23.7046  -75.9852 N.am      3 UNK        -0.4254 
     60 C         -81.3220   24.6062  -74.9911 C.2       2 UNK         0.5004 
     61 O         -80.6072   25.6114  -74.9841 O.2       2 UNK        -0.5226 
     62 CA        -82.2223   24.2586  -73.7863 C.3       2 UNK         0.0269 
     63 CB        -81.7451   22.9610  -73.1060 C.3       2 UNK        -0.1926 
     64 N         -82.2968   25.2974  -72.7555 N.am      2 UNK        -0.4687 
     65 C         -82.8102   26.5268  -72.8966 C.2       1 UNK         0.5165 
     66 O         -83.2824   26.9624  -73.9481 O.2       1 UNK        -0.5079 
     67 H67       -83.8960   25.2831  -68.3685 H         1 UNK         0.0900 
     68 H68       -85.5860   25.7878  -68.4237 H         1 UNK         0.0900 
     69 H69       -85.0773   24.3118  -69.2489 H         1 UNK         0.0900 
     70 H70       -82.5978   26.4876  -69.7384 H         1 UNK         0.2959 
     71 H71       -83.6114   28.1600  -71.8103 H         1 UNK         0.1079 
     72 H72       -81.1360   28.5824  -72.2751 H         1 UNK         0.0837 
     73 H73       -81.7172   28.9850  -70.7011 H         1 UNK         0.0837 
     74 H74       -78.3572   25.9856  -71.5085 H         1 UNK         0.0685 
     75 H75       -79.6178   26.2318  -72.6828 H         1 UNK         0.0685 
     76 H76       -79.6292   28.2156  -74.0759 H         1 UNK         0.1434 
     77 H77       -76.4105   31.0308  -73.7402 H         1 UNK         0.1329 
     78 H78       -76.8530   27.9130  -70.8255 H         1 UNK         0.1335 
     79 H79       -75.4293   29.9796  -70.3924 H         1 UNK         0.0680 
     80 H80       -75.1025   31.0922  -71.7034 H         1 UNK         0.0680 
     81 H81       -71.9107   29.3195  -70.4501 H         1 UNK         0.1032 
     82 H82       -72.9544   30.7091  -70.3546 H         1 UNK         0.1032 
     83 H83       -72.1916   31.4354  -72.6388 H         1 UNK         0.0461 
     84 H84       -68.6698   32.1253  -70.7880 H         1 UNK         0.3453 
     85 H85       -68.9041   30.7320  -71.8145 H         1 UNK         0.3453 
     86 H86       -70.8944   28.8788  -72.7166 H         1 UNK         0.2984 
     87 H87       -69.8049   29.3192  -76.0142 H         1 UNK         0.0554 
     88 H88       -67.6907   30.0404  -74.9067 H         1 UNK         0.0847 
     89 H89       -67.6328   28.3381  -75.3270 H         1 UNK         0.0847 
     90 H90       -67.9078   28.8262  -73.6544 H         1 UNK         0.0847 
     91 H91       -69.6666   27.1522  -74.0841 H         1 UNK         0.3141 
     92 H92       -70.9147   25.3463  -74.4066 H         1 UNK         0.0743 
     93 H93       -73.6734   26.5501  -73.8109 H         1 UNK         0.0784 
     94 H94       -73.0876   24.9975  -73.2182 H         1 UNK         0.0784 
     95 H95       -72.3153   26.4848  -72.6941 H         1 UNK         0.0784 
     96 H96       -73.4506   25.1051  -75.7868 H         1 UNK         0.3213 
     97 H97       -71.9743   23.5790  -78.7018 H         1 UNK         0.0855 
     98 H98       -73.7114   22.5713  -76.3859 H         1 UNK         0.0814 
     99 H99       -72.1912   21.8636  -76.9161 H         1 UNK         0.0814 
    100 H100      -73.5852   21.8388  -77.9838 H         1 UNK         0.0814 
    101 H101      -74.5256   24.6769  -77.5707 H         1 UNK         0.3105 
    102 H102      -75.1463   26.6265  -80.3625 H         1 UNK         0.0547 
    103 H103      -77.1320   25.2526  -80.9679 H         1 UNK         0.0837 
    104 H104      -76.4230   23.8451  -80.1779 H         1 UNK         0.0837 
    105 H105      -75.6639   24.5326  -81.6072 H         1 UNK         0.0837 
    106 H106      -76.8699   25.4227  -78.3548 H         1 UNK         0.3020 
    107 H107      -76.1604   27.7723  -75.7990 H         1 UNK         0.1245 
    108 H108      -78.8296   27.9454  -76.2621 H         1 UNK         0.0781 
    109 H109      -78.3589   27.9796  -77.9200 H         1 UNK         0.0781 
    110 H110      -79.6243   30.2104  -75.4645 H         1 UNK         0.0836 
    111 H111      -78.4925   31.4977  -75.1463 H         1 UNK         0.0836 
    112 H112      -78.2001   25.8925  -75.8753 H         1 UNK         0.3022 
    113 H113      -76.5777   22.8322  -75.7961 H         1 UNK         0.0747 
    114 H114      -77.4861   22.4309  -73.5190 H         1 UNK         0.0793 
    115 H115      -76.0613   23.4510  -73.4185 H         1 UNK         0.0793 
    116 H116      -77.6584   24.1666  -73.2514 H         1 UNK         0.0793 
    117 H117      -79.2180   23.4167  -75.0400 H         1 UNK         0.3047 
    118 H118      -80.7346   24.7040  -77.7072 H         1 UNK         0.0822 
    119 H119      -82.0220   22.6902  -78.3859 H         1 UNK         0.0807 
    120 H120      -80.7813   21.6368  -77.7035 H         1 UNK         0.0807 
    121 H121      -80.4188   22.6480  -79.0948 H         1 UNK         0.0807 
    122 H122      -81.9249   22.9008  -75.8964 H         1 UNK         0.2946 
    123 H123      -83.2337   24.1067  -74.1701 H         1 UNK         0.1144 
    124 H124      -80.7309   23.0607  -72.7161 H         1 UNK         0.0793 
    125 H125      -81.7485   22.1155  -73.7947 H         1 UNK         0.0793 
    126 H126      -82.3955   22.6886  -72.2743 H         1 UNK         0.0793 
    127 H127      -81.9314   25.0537  -71.8468 H         1 UNK         0.2896 
@<TRIPOS>BOND
     1    1    2 1    
     2    1   67 1    
     3    1   68 1    
     4    1   69 1    
     5    2    3 2    
     6    2    4 am   BACKBONE|DICT|INTERRES
     7    4    5 1    
     8    4   70 1    
     9    5    6 1    
    10    5   65 1    
    11    5   71 1    
    12    6    7 1    
    13    6   72 1    
    14    6   73 1    
    15    7    8 1    
    16    8    9 1    
    17    8   74 1    
    18    8   75 1    
    19    9   10 ar   
    20    9   14 ar   
    21   10   11 ar   
    22   10   76 1    
    23   11   12 ar   
    24   11   48 1    
    25   12   13 ar   
    26   12   77 1    
    27   13   14 ar   
    28   13   15 1    
    29   14   78 1    
    30   15   16 1    
    31   15   79 1    
    32   15   80 1    
    33   16   17 1    
    34   17   18 1    
    35   17   81 1    
    36   17   82 1    
    37   18   19 1    
    38   18   22 1    
    39   18   83 1    
    40   19   20 am   BACKBONE|DICT|INTERRES
    41   19   21 2    
    42   20   84 1    
    43   20   85 1    
    44   22   23 am   BACKBONE|DICT|INTERRES
    45   22   86 1    
    46   23   24 2    
    47   23   25 1    
    48   25   26 1    
    49   25   27 1    
    50   25   87 1    
    51   26   88 1    
    52   26   89 1    
    53   26   90 1    
    54   27   28 am   BACKBONE|DICT|INTERRES
    55   27   91 1    
    56   28   29 2    
    57   28   30 1    
    58   30   31 1    
    59   30   32 1    
    60   30   92 1    
    61   31   93 1    
    62   31   94 1    
    63   31   95 1    
    64   32   33 am   BACKBONE|DICT|INTERRES
    65   32   96 1    
    66   33   34 2    
    67   33   35 1    
    68   35   36 1    
    69   35   37 1    
    70   35   97 1    
    71   36   98 1    
    72   36   99 1    
    73   36  100 1    
    74   37   38 am   BACKBONE|DICT|INTERRES
    75   37  101 1    
    76   38   39 2    
    77   38   40 1    
    78   40   41 1    
    79   40   42 1    
    80   40  102 1    
    81   41  103 1    
    82   41  104 1    
    83   41  105 1    
    84   42   43 am   BACKBONE|DICT|INTERRES
    85   42  106 1    
    86   43   44 2    
    87   43   45 1    
    88   45   46 1    
    89   45   49 1    
    90   45  107 1    
    91   46   47 1    
    92   46  108 1    
    93   46  109 1    
    94   47   48 1    
    95   48  110 1    
    96   48  111 1    
    97   49   50 am   BACKBONE|DICT|INTERRES
    98   49  112 1    
    99   50   51 2    
   100   50   52 1    
   101   52   53 1    
   102   52   54 1    
   103   52  113 1    
   104   53  114 1    
   105   53  115 1    
   106   53  116 1    
   107   54   55 am   BACKBONE|DICT|INTERRES
   108   54  117 1    
   109   55   56 2    
   110   55   57 1    
   111   57   58 1    
   112   57   59 1    
   113   57  118 1    
   114   58  119 1    
   115   58  120 1    
   116   58  121 1    
   117   59   60 am   BACKBONE|DICT|INTERRES
   118   59  122 1    
   119   60   61 2    
   120   60   62 1    
   121   62   63 1    
   122   62   64 1    
   123   62  123 1    
   124   63  124 1    
   125   63  125 1    
   126   63  126 1    
   127   64   65 am   BACKBONE|DICT|INTERRES
   128   64  127 1    
   129   65   66 2    
@<TRIPOS>SUBSTRUCTURE
     1 UNK         1 GROUP             0       ****    0 ROOT    
