@<TRIPOS>MOLECULE
3R135
127   129    1
SMALL
USER_CHARGES


@<TRIPOS>ATOM
      1 CA        -83.9668   24.6555  -69.7463 C.3       0 UNK        -0.1998 
      2 C         -83.7914   25.5983  -70.9275 C.2       0 UNK         0.4909 
      3 O         -84.7734   26.1618  -71.4126 O.2       0 UNK        -0.5240 
      4 N         -82.5471   25.7812  -71.3859 N.am      1 UNK        -0.4739 
      5 CA        -82.1938   26.6008  -72.5493 C.3       1 UNK         0.0864 
      6 C6        -80.6662   26.8291  -72.6382 C.3       11 UNK        -0.0881 
      7 S7        -80.0535   27.9079  -71.3031 S.3       11 UNK        -0.2682 
      8 C8        -79.6972   29.4459  -72.2122 C.3       11 UNK         0.0289 
      9 C9        -78.4239   29.3364  -73.0403 C.ar      11 UNK        -0.0687 
     10 C10       -78.4873   29.1102  -74.4203 C.ar      11 UNK        -0.0823 
     11 C11       -77.3159   29.0123  -75.1775 C.ar      11 UNK        -0.0830 
     12 C12       -76.0787   29.1693  -74.5515 C.ar      11 UNK        -0.1021 
     13 C13       -76.0020   29.3924  -73.1745 C.ar      11 UNK        -0.0753 
     14 C14       -77.1767   29.4745  -72.4222 C.ar      11 UNK        -0.0933 
     15 C15       -74.6414   29.5441  -72.5181 C.3       11 UNK         0.0166 
     16 S16       -73.6951   27.9971  -72.6780 S.3       11 UNK        -0.2615 
     17 C17       -71.9544   28.4611  -72.3709 C.3       11 UNK        -0.0865 
     18 CA        -71.4690   29.8169  -72.9535 C.3       10 UNK         0.0862 
     19 C         -69.9399   29.9806  -72.7363 C.2       10 UNK         0.5551 
     20 N         -69.5310   30.6034  -71.6393 N.am      10 UNK        -0.7319 
     21 O         -69.1257   29.5033  -73.5236 O.2       10 UNK        -0.5018 
     22 N         -71.8627   30.0075  -74.3602 N.am      10 UNK        -0.4509 
     23 C         -71.8287   31.1921  -74.9893 C.2       10 UNK         0.4899 
     24 O         -71.4473   32.2338  -74.4522 O.2       10 UNK        -0.4839 
     25 CA        -72.3571   31.2412  -76.4385 C.3       9 UNK         0.0222 
     26 CB        -71.8773   32.4864  -77.2162 C.3       9 UNK        -0.1966 
     27 N         -72.1036   30.0131  -77.1970 N.am      9 UNK        -0.4218 
     28 C         -70.9172   29.4931  -77.5399 C.2       9 UNK         0.5020 
     29 O         -69.8258   30.0173  -77.3093 O.2       9 UNK        -0.5274 
     30 CA        -70.9734   28.1206  -78.2356 C.3       8 UNK         0.0270 
     31 CB        -69.9582   28.0262  -79.3889 C.3       8 UNK        -0.1976 
     32 N         -70.7377   27.0227  -77.2949 N.am      8 UNK        -0.4313 
     33 C         -71.4800   26.7508  -76.2143 C.2       8 UNK         0.5041 
     34 O         -72.4812   27.3953  -75.8809 O.2       8 UNK        -0.5577 
     35 CA        -71.0279   25.5611  -75.3605 C.3       7 UNK         0.0284 
     36 CB        -69.6974   25.8500  -74.6371 C.3       7 UNK        -0.1958 
     37 N         -72.0935   25.2841  -74.4050 N.am      7 UNK        -0.4454 
     38 C         -72.2973   24.1395  -73.7477 C.2       7 UNK         0.5089 
     39 O         -71.5241   23.1813  -73.7787 O.2       7 UNK        -0.5125 
     40 CA        -73.6011   24.0326  -72.9359 C.3       6 UNK         0.0408 
     41 CB        -73.3644   24.4364  -71.4719 C.3       6 UNK        -0.1791 
     42 N         -74.7110   24.8155  -73.4985 N.am      6 UNK        -0.4762 
     43 C         -75.3383   24.5047  -74.6425 C.2       6 UNK         0.5007 
     44 O         -75.0126   23.5526  -75.3563 O.2       6 UNK        -0.5032 
     45 CA        -76.5544   25.3597  -75.0549 C.3       5 UNK         0.0783 
     46 C46       -76.2799   26.1151  -76.3825 C.3       11 UNK        -0.0857 
     47 S47       -77.7524   26.9904  -77.0233 S.3       11 UNK        -0.2512 
     48 C48       -77.3806   28.7368  -76.6714 C.3       11 UNK         0.0225 
     49 N         -77.7198   24.4778  -75.1561 N.am      5 UNK        -0.4615 
     50 C         -78.3687   23.9332  -74.1228 C.2       4 UNK         0.5053 
     51 O         -78.1009   24.1922  -72.9486 O.2       4 UNK        -0.5105 
     52 CA        -79.4933   22.9298  -74.4544 C.3       4 UNK         0.0263 
     53 CB        -80.3028   22.5191  -73.2092 C.3       4 UNK        -0.1981 
     54 N         -80.4146   23.4031  -75.4967 N.am      4 UNK        -0.4224 
     55 C         -80.1710   23.3545  -76.8164 C.2       3 UNK         0.4895 
     56 O         -79.0928   22.9870  -77.2853 O.2       3 UNK        -0.5091 
     57 CA        -81.2957   23.7538  -77.7906 C.3       3 UNK         0.0250 
     58 CB        -81.8950   22.5017  -78.4527 C.3       3 UNK        -0.1996 
     59 N         -82.3751   24.5175  -77.1643 N.am      3 UNK        -0.4254 
     60 C         -82.3292   25.8319  -76.9157 C.2       2 UNK         0.5004 
     61 O         -81.3818   26.5554  -77.2217 O.2       2 UNK        -0.5226 
     62 CA        -83.5254   26.4537  -76.1713 C.3       2 UNK         0.0269 
     63 CB        -84.8123   25.5954  -76.1954 C.3       2 UNK        -0.1926 
     64 N         -83.1480   26.8027  -74.7969 N.am      2 UNK        -0.4687 
     65 C         -82.6988   25.9590  -73.8556 C.2       1 UNK         0.5165 
     66 O         -82.6169   24.7371  -74.0091 O.2       1 UNK        -0.5079 
     67 H67       -83.0168   24.2375  -69.4137 H         1 UNK         0.0900 
     68 H68       -84.6229   23.8298  -70.0204 H         1 UNK         0.0900 
     69 H69       -84.4167   25.1850  -68.9069 H         1 UNK         0.0900 
     70 H70       -81.7792   25.2919  -70.9499 H         1 UNK         0.2959 
     71 H71       -82.6878   27.5687  -72.4361 H         1 UNK         0.1079 
     72 H72       -80.3905   27.2582  -73.6019 H         1 UNK         0.0837 
     73 H73       -80.1348   25.8789  -72.5792 H         1 UNK         0.0837 
     74 H74       -80.5499   29.7071  -72.8411 H         1 UNK         0.0685 
     75 H75       -79.5907   30.2600  -71.4937 H         1 UNK         0.0685 
     76 H76       -79.4458   28.9995  -74.9088 H         1 UNK         0.1434 
     77 H77       -75.1670   29.0982  -75.1297 H         1 UNK         0.1329 
     78 H78       -77.1242   29.6450  -71.3555 H         1 UNK         0.1335 
     79 H79       -74.1349   30.3770  -73.0015 H         1 UNK         0.0680 
     80 H80       -74.7339   29.8014  -71.4620 H         1 UNK         0.0680 
     81 H81       -71.3452   27.6452  -72.7582 H         1 UNK         0.1032 
     82 H82       -71.7993   28.4504  -71.2904 H         1 UNK         0.1032 
     83 H83       -71.9573   30.6066  -72.3793 H         1 UNK         0.0461 
     84 H84       -70.1895   30.9906  -70.9813 H         1 UNK         0.3453 
     85 H85       -68.5416   30.7021  -71.4728 H         1 UNK         0.3453 
     86 H86       -72.1608   29.1783  -74.8638 H         1 UNK         0.2984 
     87 H87       -73.4421   31.3141  -76.3510 H         1 UNK         0.0554 
     88 H88       -72.2765   32.5005  -78.2302 H         1 UNK         0.0847 
     89 H89       -70.7897   32.5290  -77.2825 H         1 UNK         0.0847 
     90 H90       -72.2073   33.4042  -76.7280 H         1 UNK         0.0847 
     91 H91       -72.9192   29.4427  -77.3762 H         1 UNK         0.3141 
     92 H92       -71.9706   27.9867  -78.6606 H         1 UNK         0.0743 
     93 H93       -70.1054   28.8370  -80.1037 H         1 UNK         0.0784 
     94 H94       -70.0647   27.0899  -79.9370 H         1 UNK         0.0784 
     95 H95       -68.9296   28.0911  -79.0312 H         1 UNK         0.0784 
     96 H96       -69.9213   26.4553  -77.4713 H         1 UNK         0.3213 
     97 H97       -70.9120   24.6933  -76.0134 H         1 UNK         0.0855 
     98 H98       -68.8773   25.9397  -75.3499 H         1 UNK         0.0814 
     99 H99       -69.4314   25.0501  -73.9463 H         1 UNK         0.0814 
    100 H100      -69.7312   26.7814  -74.0738 H         1 UNK         0.0814 
    101 H101      -72.7958   26.0157  -74.3637 H         1 UNK         0.3105 
    102 H102      -73.9020   22.9827  -72.9430 H         1 UNK         0.0547 
    103 H103      -73.0242   25.4675  -71.3814 H         1 UNK         0.0837 
    104 H104      -72.6004   23.8053  -71.0160 H         1 UNK         0.0837 
    105 H105      -74.2707   24.3263  -70.8762 H         1 UNK         0.0837 
    106 H106      -75.0183   25.6165  -72.9630 H         1 UNK         0.3020 
    107 H107      -76.7542   26.0999  -74.2759 H         1 UNK         0.1245 
    108 H108      -75.9589   25.4184  -77.1595 H         1 UNK         0.0781 
    109 H109      -75.4567   26.8209  -76.2569 H         1 UNK         0.0781 
    110 H110      -78.1560   29.3590  -77.1207 H         1 UNK         0.0836 
    111 H111      -76.4462   29.0145  -77.1618 H         1 UNK         0.0836 
    112 H112      -77.9820   24.1814  -76.0897 H         1 UNK         0.3022 
    113 H113      -78.9995   22.0282  -74.8233 H         1 UNK         0.0747 
    114 H114      -81.0905   21.8091  -73.4614 H         1 UNK         0.0793 
    115 H115      -79.6620   22.0398  -72.4680 H         1 UNK         0.0793 
    116 H116      -80.7677   23.3785  -72.7263 H         1 UNK         0.0793 
    117 H117      -81.3008   23.7777  -75.1703 H         1 UNK         0.3047 
    118 H118      -80.8415   24.3656  -78.5735 H         1 UNK         0.0822 
    119 H119      -82.6441   22.7672  -79.1990 H         1 UNK         0.0807 
    120 H120      -82.3662   21.8436  -77.7215 H         1 UNK         0.0807 
    121 H121      -81.1242   21.9223  -78.9632 H         1 UNK         0.0807 
    122 H122      -83.1813   23.9973  -76.8484 H         1 UNK         0.2946 
    123 H123      -83.7470   27.3899  -76.6870 H         1 UNK         0.1144 
    124 H124      -85.1077   25.3599  -77.2188 H         1 UNK         0.0793 
    125 H125      -85.6444   26.1336  -75.7412 H         1 UNK         0.0793 
    126 H126      -84.7033   24.6538  -75.6567 H         1 UNK         0.0793 
    127 H127      -83.1494   27.7924  -74.5914 H         1 UNK         0.2896 
@<TRIPOS>BOND
     1    1    2 1    
     2    1   67 1    
     3    1   68 1    
     4    1   69 1    
     5    2    3 2    
     6    2    4 am   BACKBONE|DICT|INTERRES
     7    4    5 1    
     8    4   70 1    
     9    5    6 1    
    10    5   65 1    
    11    5   71 1    
    12    6    7 1    
    13    6   72 1    
    14    6   73 1    
    15    7    8 1    
    16    8    9 1    
    17    8   74 1    
    18    8   75 1    
    19    9   10 ar   
    20    9   14 ar   
    21   10   11 ar   
    22   10   76 1    
    23   11   12 ar   
    24   11   48 1    
    25   12   13 ar   
    26   12   77 1    
    27   13   14 ar   
    28   13   15 1    
    29   14   78 1    
    30   15   16 1    
    31   15   79 1    
    32   15   80 1    
    33   16   17 1    
    34   17   18 1    
    35   17   81 1    
    36   17   82 1    
    37   18   19 1    
    38   18   22 1    
    39   18   83 1    
    40   19   20 am   BACKBONE|DICT|INTERRES
    41   19   21 2    
    42   20   84 1    
    43   20   85 1    
    44   22   23 am   BACKBONE|DICT|INTERRES
    45   22   86 1    
    46   23   24 2    
    47   23   25 1    
    48   25   26 1    
    49   25   27 1    
    50   25   87 1    
    51   26   88 1    
    52   26   89 1    
    53   26   90 1    
    54   27   28 am   BACKBONE|DICT|INTERRES
    55   27   91 1    
    56   28   29 2    
    57   28   30 1    
    58   30   31 1    
    59   30   32 1    
    60   30   92 1    
    61   31   93 1    
    62   31   94 1    
    63   31   95 1    
    64   32   33 am   BACKBONE|DICT|INTERRES
    65   32   96 1    
    66   33   34 2    
    67   33   35 1    
    68   35   36 1    
    69   35   37 1    
    70   35   97 1    
    71   36   98 1    
    72   36   99 1    
    73   36  100 1    
    74   37   38 am   BACKBONE|DICT|INTERRES
    75   37  101 1    
    76   38   39 2    
    77   38   40 1    
    78   40   41 1    
    79   40   42 1    
    80   40  102 1    
    81   41  103 1    
    82   41  104 1    
    83   41  105 1    
    84   42   43 am   BACKBONE|DICT|INTERRES
    85   42  106 1    
    86   43   44 2    
    87   43   45 1    
    88   45   46 1    
    89   45   49 1    
    90   45  107 1    
    91   46   47 1    
    92   46  108 1    
    93   46  109 1    
    94   47   48 1    
    95   48  110 1    
    96   48  111 1    
    97   49   50 am   BACKBONE|DICT|INTERRES
    98   49  112 1    
    99   50   51 2    
   100   50   52 1    
   101   52   53 1    
   102   52   54 1    
   103   52  113 1    
   104   53  114 1    
   105   53  115 1    
   106   53  116 1    
   107   54   55 am   BACKBONE|DICT|INTERRES
   108   54  117 1    
   109   55   56 2    
   110   55   57 1    
   111   57   58 1    
   112   57   59 1    
   113   57  118 1    
   114   58  119 1    
   115   58  120 1    
   116   58  121 1    
   117   59   60 am   BACKBONE|DICT|INTERRES
   118   59  122 1    
   119   60   61 2    
   120   60   62 1    
   121   62   63 1    
   122   62   64 1    
   123   62  123 1    
   124   63  124 1    
   125   63  125 1    
   126   63  126 1    
   127   64   65 am   BACKBONE|DICT|INTERRES
   128   64  127 1    
   129   65   66 2    
@<TRIPOS>SUBSTRUCTURE
     1 UNK         1 GROUP             0       ****    0 ROOT    
