@<TRIPOS>MOLECULE
3R135
127   129    1
SMALL
USER_CHARGES


@<TRIPOS>ATOM
      1 CA        -77.1075   28.4114  -75.0202 C.3       0 UNK        -0.1998 
      2 C         -78.2756   27.6073  -74.4815 C.2       0 UNK         0.4909 
      3 O         -78.3229   26.3958  -74.6905 O.2       0 UNK        -0.5240 
      4 N         -79.2164   28.2665  -73.7907 N.am      1 UNK        -0.4739 
      5 CA        -80.3945   27.6426  -73.1739 C.3       1 UNK         0.0864 
      6 C6        -81.2276   28.6220  -72.3020 C.3       11 UNK        -0.0881 
      7 S7        -80.2504   29.7957  -71.2977 S.3       11 UNK        -0.2682 
      8 C8        -79.8128   28.8132  -69.8304 C.3       11 UNK         0.0289 
      9 C9        -78.4462   28.1617  -69.9841 C.ar      11 UNK        -0.0687 
     10 C10       -78.3338   26.7878  -70.2153 C.ar      11 UNK        -0.0823 
     11 C11       -77.0789   26.1830  -70.3433 C.ar      11 UNK        -0.0830 
     12 C12       -75.9290   26.9725  -70.2091 C.ar      11 UNK        -0.1021 
     13 C13       -76.0269   28.3495  -70.0000 C.ar      11 UNK        -0.0753 
     14 C14       -77.2881   28.9386  -69.8809 C.ar      11 UNK        -0.0933 
     15 C15       -74.7634   29.1922  -69.9116 C.3       11 UNK         0.0166 
     16 S16       -74.0368   29.4813  -71.5565 S.3       11 UNK        -0.2615 
     17 C17       -75.2634   30.6254  -72.2812 C.3       11 UNK        -0.0865 
     18 CA        -74.7855   31.3369  -73.5755 C.3       10 UNK         0.0862 
     19 C         -73.6892   32.4058  -73.3009 C.2       10 UNK         0.5551 
     20 N         -74.0749   33.5571  -72.7664 N.am      10 UNK        -0.7319 
     21 O         -72.5006   32.2000  -73.5381 O.2       10 UNK        -0.5018 
     22 N         -74.4201   30.3643  -74.6135 N.am      10 UNK        -0.4509 
     23 C         -74.3124   30.6304  -75.9213 C.2       10 UNK         0.4899 
     24 O         -74.5363   31.7380  -76.4124 O.2       10 UNK        -0.4839 
     25 CA        -73.9511   29.4450  -76.8410 C.3       9 UNK         0.0222 
     26 CB        -73.3082   29.8876  -78.1727 C.3       9 UNK        -0.1966 
     27 N         -73.1498   28.4057  -76.1832 N.am      9 UNK        -0.4218 
     28 C         -71.8943   28.5167  -75.7194 C.2       9 UNK         0.5020 
     29 O         -71.2197   29.5452  -75.7688 O.2       9 UNK        -0.5274 
     30 CA        -71.2824   27.2480  -75.1080 C.3       8 UNK         0.0270 
     31 CB        -71.7337   27.0824  -73.6470 C.3       8 UNK        -0.1976 
     32 N         -71.6496   26.0608  -75.8846 N.am      8 UNK        -0.4313 
     33 C         -70.9967   25.6450  -76.9800 C.2       8 UNK         0.5041 
     34 O         -69.9600   26.1642  -77.3961 O.2       8 UNK        -0.5577 
     35 CA        -71.5881   24.4465  -77.7467 C.3       7 UNK         0.0284 
     36 CB        -70.9613   23.1321  -77.2537 C.3       7 UNK        -0.1958 
     37 N         -73.0465   24.3544  -77.6456 N.am      7 UNK        -0.4454 
     38 C         -73.9088   25.1953  -78.2350 C.2       7 UNK         0.5089 
     39 O         -73.5710   26.1013  -78.9962 O.2       7 UNK        -0.5125 
     40 CA        -75.4019   25.0128  -77.8956 C.3       6 UNK         0.0408 
     41 CB        -76.0835   24.1412  -78.9622 C.3       6 UNK        -0.1791 
     42 N         -75.6624   24.4463  -76.5640 N.am      6 UNK        -0.4762 
     43 C         -75.2437   24.9744  -75.4028 C.2       6 UNK         0.5007 
     44 O         -74.5580   25.9986  -75.3413 O.2       6 UNK        -0.5032 
     45 CA        -75.6515   24.2321  -74.1160 C.3       5 UNK         0.0783 
     46 C46       -75.2613   25.0171  -72.8392 C.3       11 UNK        -0.0857 
     47 S47       -75.4439   24.0482  -71.3034 S.3       11 UNK        -0.2512 
     48 C48       -77.0193   24.6801  -70.6248 C.3       11 UNK         0.0225 
     49 N         -77.0868   23.9674  -74.1843 N.am      5 UNK        -0.4615 
     50 C         -77.6793   22.7878  -73.9783 C.2       4 UNK         0.5053 
     51 O         -77.0774   21.7575  -73.6748 O.2       4 UNK        -0.5105 
     52 CA        -79.2064   22.7418  -74.1637 C.3       4 UNK         0.0263 
     53 CB        -79.9268   23.1063  -72.8560 C.3       4 UNK        -0.1981 
     54 N         -79.6953   23.6078  -75.2418 N.am      4 UNK        -0.4224 
     55 C         -79.4204   23.4249  -76.5440 C.2       3 UNK         0.4895 
     56 O         -78.6881   22.5237  -76.9551 O.2       3 UNK        -0.5091 
     57 CA        -80.0600   24.3774  -77.5706 C.3       3 UNK         0.0250 
     58 CB        -80.7099   23.6076  -78.7375 C.3       3 UNK        -0.1996 
     59 N         -81.0390   25.2812  -76.9675 N.am      3 UNK        -0.4254 
     60 C         -81.3191   26.5135  -77.4027 C.2       2 UNK         0.5004 
     61 O         -80.8316   27.0159  -78.4158 O.2       2 UNK        -0.5226 
     62 CA        -82.2742   27.3469  -76.5341 C.3       2 UNK         0.0269 
     63 CB        -83.6430   26.6650  -76.3228 C.3       2 UNK        -0.1926 
     64 N         -81.6395   27.7403  -75.2702 N.am      2 UNK        -0.4687 
     65 C         -81.2803   26.9619  -74.2368 C.2       1 UNK         0.5165 
     66 O         -81.5412   25.7603  -74.1462 O.2       1 UNK        -0.5079 
     67 H67       -76.9868   28.2189  -76.0855 H         1 UNK         0.0900 
     68 H68       -77.2490   29.4825  -74.8791 H         1 UNK         0.0900 
     69 H69       -76.1919   28.1112  -74.5120 H         1 UNK         0.0900 
     70 H70       -79.1160   29.2570  -73.6197 H         1 UNK         0.2959 
     71 H71       -80.0212   26.8510  -72.5226 H         1 UNK         0.1079 
     72 H72       -81.9011   28.0642  -71.6488 H         1 UNK         0.0837 
     73 H73       -81.8756   29.2379  -72.9287 H         1 UNK         0.0837 
     74 H74       -79.7941   29.4740  -68.9625 H         1 UNK         0.0685 
     75 H75       -80.5849   28.0697  -69.6272 H         1 UNK         0.0685 
     76 H76       -79.2281   26.1853  -70.2968 H         1 UNK         0.1434 
     77 H77       -74.9464   26.5307  -70.2924 H         1 UNK         0.1329 
     78 H78       -77.3723   30.0037  -69.7135 H         1 UNK         0.1335 
     79 H79       -74.0294   28.6794  -69.2883 H         1 UNK         0.0680 
     80 H80       -74.9633   30.1475  -69.4239 H         1 UNK         0.0680 
     81 H81       -76.1686   30.0545  -72.4934 H         1 UNK         0.1032 
     82 H82       -75.5546   31.3613  -71.5294 H         1 UNK         0.1032 
     83 H83       -75.6477   31.8824  -73.9653 H         1 UNK         0.0461 
     84 H84       -73.3806   34.2609  -72.5696 H         1 UNK         0.3453 
     85 H85       -75.0451   33.7428  -72.5652 H         1 UNK         0.3453 
     86 H86       -74.1572   29.4491  -74.2807 H         1 UNK         0.2984 
     87 H87       -74.8975   28.9651  -77.0910 H         1 UNK         0.0554 
     88 H88       -73.9824   30.5315  -78.7386 H         1 UNK         0.0847 
     89 H89       -73.0768   29.0295  -78.8043 H         1 UNK         0.0847 
     90 H90       -72.3858   30.4463  -78.0127 H         1 UNK         0.0847 
     91 H91       -73.6259   27.5191  -76.0340 H         1 UNK         0.3141 
     92 H92       -70.1955   27.3570  -75.1129 H         1 UNK         0.0743 
     93 H93       -71.3822   27.9166  -73.0382 H         1 UNK         0.0784 
     94 H94       -72.8193   27.0571  -73.5548 H         1 UNK         0.0784 
     95 H95       -71.3353   26.1686  -73.2061 H         1 UNK         0.0784 
     96 H96       -72.5287   25.6194  -75.6452 H         1 UNK         0.3213 
     97 H97       -71.3296   24.5729  -78.8006 H         1 UNK         0.0855 
     98 H98       -71.1952   22.9386  -76.2061 H         1 UNK         0.0814 
     99 H99       -69.8744   23.1617  -77.3439 H         1 UNK         0.0814 
    100 H100      -71.3092   22.2812  -77.8399 H         1 UNK         0.0814 
    101 H101      -73.4226   23.6247  -77.0583 H         1 UNK         0.3105 
    102 H102      -75.8616   26.0031  -77.9195 H         1 UNK         0.0547 
    103 H103      -77.1599   24.0856  -78.8068 H         1 UNK         0.0837 
    104 H104      -75.9251   24.5503  -79.9611 H         1 UNK         0.0837 
    105 H105      -75.6930   23.1229  -78.9616 H         1 UNK         0.0837 
    106 H106      -76.2409   23.6171  -76.5305 H         1 UNK         0.3020 
    107 H107      -75.0954   23.2920  -74.1221 H         1 UNK         0.1245 
    108 H108      -75.8305   25.9460  -72.7804 H         1 UNK         0.0781 
    109 H109      -74.2115   25.3097  -72.8783 H         1 UNK         0.0781 
    110 H110      -77.2330   24.1457  -69.6985 H         1 UNK         0.0836 
    111 H111      -77.8112   24.4142  -71.3233 H         1 UNK         0.0836 
    112 H112      -77.6594   24.7750  -74.4361 H         1 UNK         0.3022 
    113 H113      -79.4702   21.7132  -74.4191 H         1 UNK         0.0747 
    114 H114      -81.0006   22.9365  -72.9372 H         1 UNK         0.0793 
    115 H115      -79.5646   22.5007  -72.0240 H         1 UNK         0.0793 
    116 H116      -79.7775   24.1539  -72.5935 H         1 UNK         0.0793 
    117 H117      -80.2364   24.4135  -74.9491 H         1 UNK         0.3047 
    118 H118      -79.2381   24.9773  -77.9665 H         1 UNK         0.0822 
    119 H119      -79.9895   22.9532  -79.2302 H         1 UNK         0.0807 
    120 H120      -81.0947   24.2872  -79.4979 H         1 UNK         0.0807 
    121 H121      -81.5371   22.9855  -78.3942 H         1 UNK         0.0807 
    122 H122      -81.4761   24.9820  -76.1041 H         1 UNK         0.2946 
    123 H123      -82.4600   28.2739  -77.0801 H         1 UNK         0.1144 
    124 H124      -84.3212   27.3118  -75.7662 H         1 UNK         0.0793 
    125 H125      -83.5683   25.7215  -75.7828 H         1 UNK         0.0793 
    126 H126      -84.1175   26.4493  -77.2810 H         1 UNK         0.0793 
    127 H127      -81.3150   28.6973  -75.2447 H         1 UNK         0.2896 
@<TRIPOS>BOND
     1    1    2 1    
     2    1   67 1    
     3    1   68 1    
     4    1   69 1    
     5    2    3 2    
     6    2    4 am   BACKBONE|DICT|INTERRES
     7    4    5 1    
     8    4   70 1    
     9    5    6 1    
    10    5   65 1    
    11    5   71 1    
    12    6    7 1    
    13    6   72 1    
    14    6   73 1    
    15    7    8 1    
    16    8    9 1    
    17    8   74 1    
    18    8   75 1    
    19    9   10 ar   
    20    9   14 ar   
    21   10   11 ar   
    22   10   76 1    
    23   11   12 ar   
    24   11   48 1    
    25   12   13 ar   
    26   12   77 1    
    27   13   14 ar   
    28   13   15 1    
    29   14   78 1    
    30   15   16 1    
    31   15   79 1    
    32   15   80 1    
    33   16   17 1    
    34   17   18 1    
    35   17   81 1    
    36   17   82 1    
    37   18   19 1    
    38   18   22 1    
    39   18   83 1    
    40   19   20 am   BACKBONE|DICT|INTERRES
    41   19   21 2    
    42   20   84 1    
    43   20   85 1    
    44   22   23 am   BACKBONE|DICT|INTERRES
    45   22   86 1    
    46   23   24 2    
    47   23   25 1    
    48   25   26 1    
    49   25   27 1    
    50   25   87 1    
    51   26   88 1    
    52   26   89 1    
    53   26   90 1    
    54   27   28 am   BACKBONE|DICT|INTERRES
    55   27   91 1    
    56   28   29 2    
    57   28   30 1    
    58   30   31 1    
    59   30   32 1    
    60   30   92 1    
    61   31   93 1    
    62   31   94 1    
    63   31   95 1    
    64   32   33 am   BACKBONE|DICT|INTERRES
    65   32   96 1    
    66   33   34 2    
    67   33   35 1    
    68   35   36 1    
    69   35   37 1    
    70   35   97 1    
    71   36   98 1    
    72   36   99 1    
    73   36  100 1    
    74   37   38 am   BACKBONE|DICT|INTERRES
    75   37  101 1    
    76   38   39 2    
    77   38   40 1    
    78   40   41 1    
    79   40   42 1    
    80   40  102 1    
    81   41  103 1    
    82   41  104 1    
    83   41  105 1    
    84   42   43 am   BACKBONE|DICT|INTERRES
    85   42  106 1    
    86   43   44 2    
    87   43   45 1    
    88   45   46 1    
    89   45   49 1    
    90   45  107 1    
    91   46   47 1    
    92   46  108 1    
    93   46  109 1    
    94   47   48 1    
    95   48  110 1    
    96   48  111 1    
    97   49   50 am   BACKBONE|DICT|INTERRES
    98   49  112 1    
    99   50   51 2    
   100   50   52 1    
   101   52   53 1    
   102   52   54 1    
   103   52  113 1    
   104   53  114 1    
   105   53  115 1    
   106   53  116 1    
   107   54   55 am   BACKBONE|DICT|INTERRES
   108   54  117 1    
   109   55   56 2    
   110   55   57 1    
   111   57   58 1    
   112   57   59 1    
   113   57  118 1    
   114   58  119 1    
   115   58  120 1    
   116   58  121 1    
   117   59   60 am   BACKBONE|DICT|INTERRES
   118   59  122 1    
   119   60   61 2    
   120   60   62 1    
   121   62   63 1    
   122   62   64 1    
   123   62  123 1    
   124   63  124 1    
   125   63  125 1    
   126   63  126 1    
   127   64   65 am   BACKBONE|DICT|INTERRES
   128   64  127 1    
   129   65   66 2    
@<TRIPOS>SUBSTRUCTURE
     1 UNK         1 GROUP             0       ****    0 ROOT    
