@<TRIPOS>MOLECULE
3R135
127   129    1
SMALL
USER_CHARGES


@<TRIPOS>ATOM
      1 CA        -80.9574   27.9533  -69.9885 C.3       0 UNK        -0.1998 
      2 C         -81.7203   27.7962  -71.2953 C.2       0 UNK         0.4909 
      3 O         -82.8796   27.3821  -71.2833 O.2       0 UNK        -0.5240 
      4 N         -81.0776   28.1325  -72.4210 N.am      1 UNK        -0.4739 
      5 CA        -81.6537   28.1025  -73.7730 C.3       1 UNK         0.0864 
      6 C6        -80.7141   28.7549  -74.8189 C.3       11 UNK        -0.0881 
      7 S7        -80.1521   30.4367  -74.3900 S.3       11 UNK        -0.2682 
      8 C8        -78.3409   30.2390  -74.4417 C.3       11 UNK         0.0289 
      9 C9        -77.7694   29.8607  -73.0833 C.ar      11 UNK        -0.0687 
     10 C10       -77.8232   28.5412  -72.6184 C.ar      11 UNK        -0.0823 
     11 C11       -77.2925   28.2103  -71.3661 C.ar      11 UNK        -0.0830 
     12 C12       -76.6532   29.1967  -70.6091 C.ar      11 UNK        -0.1021 
     13 C13       -76.5700   30.5106  -71.0765 C.ar      11 UNK        -0.0753 
     14 C14       -77.1588   30.8423  -72.2980 C.ar      11 UNK        -0.0933 
     15 C15       -75.8361   31.5657  -70.2635 C.3       11 UNK         0.0166 
     16 S16       -74.0455   31.5378  -70.6026 S.3       11 UNK        -0.2615 
     17 C17       -73.9233   32.4634  -72.1761 C.3       11 UNK        -0.0865 
     18 CA        -73.8752   31.5652  -73.4431 C.3       10 UNK         0.0862 
     19 C         -73.8068   32.4273  -74.7373 C.2       10 UNK         0.5551 
     20 N         -72.7802   32.3008  -75.5692 N.am      10 UNK        -0.7319 
     21 O         -74.7065   33.2246  -74.9903 O.2       10 UNK        -0.5018 
     22 N         -72.8532   30.5100  -73.3423 N.am      10 UNK        -0.4509 
     23 C         -72.9021   29.3513  -74.0098 C.2       10 UNK         0.4899 
     24 O         -73.7754   29.0704  -74.8314 O.2       10 UNK        -0.4839 
     25 CA        -71.7911   28.3433  -73.6866 C.3       9 UNK         0.0222 
     26 CB        -71.8582   27.8935  -72.2133 C.3       9 UNK        -0.1966 
     27 N         -71.9113   27.1660  -74.5445 N.am      9 UNK        -0.4218 
     28 C         -70.8940   26.4150  -74.9802 C.2       9 UNK         0.5020 
     29 O         -69.7098   26.6859  -74.7730 O.2       9 UNK        -0.5274 
     30 CA        -71.2340   25.1287  -75.7489 C.3       8 UNK         0.0270 
     31 CB        -71.4792   23.9759  -74.7603 C.3       8 UNK        -0.1976 
     32 N         -72.4104   25.2667  -76.6113 N.am      8 UNK        -0.4313 
     33 C         -72.3763   25.2889  -77.9510 C.2       8 UNK         0.5041 
     34 O         -71.3321   25.2920  -78.6055 O.2       8 UNK        -0.5577 
     35 CA        -73.7177   25.2652  -78.7112 C.3       7 UNK         0.0284 
     36 CB        -73.9992   23.8505  -79.2443 C.3       7 UNK        -0.1958 
     37 N         -74.8620   25.6999  -77.9108 N.am      7 UNK        -0.4454 
     38 C         -75.1081   26.9674  -77.5567 C.2       7 UNK         0.5089 
     39 O         -74.4419   27.9264  -77.9459 O.2       7 UNK        -0.5125 
     40 CA        -76.2904   27.1980  -76.5961 C.3       6 UNK         0.0408 
     41 CB        -77.5767   27.4441  -77.4002 C.3       6 UNK        -0.1791 
     42 N         -76.5164   26.0995  -75.6474 N.am      6 UNK        -0.4762 
     43 C         -75.6132   25.6183  -74.7781 C.2       6 UNK         0.5007 
     44 O         -74.4546   26.0204  -74.6996 O.2       6 UNK        -0.5032 
     45 CA        -76.0479   24.4256  -73.9107 C.3       5 UNK         0.0783 
     46 C46       -76.9968   24.8415  -72.7646 C.3       11 UNK        -0.0857 
     47 S47       -76.1257   25.6893  -71.4076 S.3       11 UNK        -0.2512 
     48 C48       -77.4287   26.8029  -70.8022 C.3       11 UNK         0.0225 
     49 N         -76.6387   23.3861  -74.7512 N.am      5 UNK        -0.4615 
     50 C         -75.9385   22.5626  -75.5425 C.2       4 UNK         0.5053 
     51 O         -74.7093   22.5356  -75.5866 O.2       4 UNK        -0.5105 
     52 CA        -76.7464   21.6214  -76.4530 C.3       4 UNK         0.0263 
     53 CB        -76.9722   20.2677  -75.7612 C.3       4 UNK        -0.1981 
     54 N         -78.0388   22.1831  -76.8568 N.am      4 UNK        -0.4224 
     55 C         -78.1826   23.2469  -77.6598 C.2       3 UNK         0.4895 
     56 O         -77.2411   23.8483  -78.1767 O.2       3 UNK        -0.5091 
     57 CA        -79.6185   23.7529  -77.8806 C.3       3 UNK         0.0250 
     58 CB        -80.3080   22.9534  -78.9977 C.3       3 UNK        -0.1996 
     59 N         -80.4511   23.7321  -76.6697 N.am      3 UNK        -0.4254 
     60 C         -80.1813   24.4251  -75.5551 C.2       2 UNK         0.5004 
     61 O         -79.1538   25.0890  -75.3949 O.2       2 UNK        -0.5226 
     62 CA        -81.2025   24.3517  -74.4093 C.3       2 UNK         0.0269 
     63 CB        -80.7670   23.3121  -73.3647 C.3       2 UNK        -0.1926 
     64 N         -81.2909   25.6667  -73.7738 N.am      2 UNK        -0.4687 
     65 C         -82.0064   26.6844  -74.2719 C.2       1 UNK         0.5165 
     66 O         -82.8679   26.5477  -75.1423 O.2       1 UNK        -0.5079 
     67 H67       -80.0243   28.4999  -70.1246 H         1 UNK         0.0900 
     68 H68       -80.7247   26.9751  -69.5687 H         1 UNK         0.0900 
     69 H69       -81.5617   28.4996  -69.2648 H         1 UNK         0.0900 
     70 H70       -80.1500   28.5285  -72.3588 H         1 UNK         0.2959 
     71 H71       -82.5849   28.6727  -73.7432 H         1 UNK         0.1079 
     72 H72       -79.8466   28.1154  -74.9858 H         1 UNK         0.0837 
     73 H73       -81.2179   28.8229  -75.7855 H         1 UNK         0.0837 
     74 H74       -78.0502   29.5029  -75.1911 H         1 UNK         0.0685 
     75 H75       -77.9065   31.1820  -74.7777 H         1 UNK         0.0685 
     76 H76       -78.2825   27.7759  -73.2272 H         1 UNK         0.1434 
     77 H77       -76.2147   28.9424  -69.6536 H         1 UNK         0.1329 
     78 H78       -77.1065   31.8614  -72.6564 H         1 UNK         0.1335 
     79 H79       -76.2414   32.5598  -70.4575 H         1 UNK         0.0680 
     80 H80       -75.9924   31.3786  -69.2000 H         1 UNK         0.0680 
     81 H81       -73.0238   33.0796  -72.1253 H         1 UNK         0.1032 
     82 H82       -74.7563   33.1660  -72.2385 H         1 UNK         0.1032 
     83 H83       -74.8340   31.0532  -73.5066 H         1 UNK         0.0461 
     84 H84       -72.0458   31.6402  -75.3727 H         1 UNK         0.3453 
     85 H85       -72.7479   32.8613  -76.4060 H         1 UNK         0.3453 
     86 H86       -72.1081   30.6740  -72.6818 H         1 UNK         0.2984 
     87 H87       -70.8363   28.8390  -73.8730 H         1 UNK         0.0554 
     88 H88       -71.7369   28.7341  -71.5294 H         1 UNK         0.0847 
     89 H89       -72.8158   27.4228  -71.9844 H         1 UNK         0.0847 
     90 H90       -71.0706   27.1767  -71.9805 H         1 UNK         0.0847 
     91 H91       -72.8715   26.8919  -74.7546 H         1 UNK         0.3141 
     92 H92       -70.3575   24.8685  -76.3461 H         1 UNK         0.0743 
     93 H93       -70.6170   23.8279  -74.1086 H         1 UNK         0.0784 
     94 H94       -72.3434   24.1664  -74.1224 H         1 UNK         0.0784 
     95 H95       -71.6555   23.0365  -75.2848 H         1 UNK         0.0784 
     96 H96       -73.3079   25.3288  -76.1408 H         1 UNK         0.3213 
     97 H97       -73.6214   25.9394  -79.5649 H         1 UNK         0.0855 
     98 H98       -73.1801   23.4976  -79.8724 H         1 UNK         0.0814 
     99 H99       -74.9049   23.8277  -79.8508 H         1 UNK         0.0814 
    100 H100      -74.1221   23.1322  -78.4324 H         1 UNK         0.0814 
    101 H101      -75.5243   24.9863  -77.6260 H         1 UNK         0.3105 
    102 H102      -76.0724   28.0916  -76.0085 H         1 UNK         0.0547 
    103 H103      -77.4724   28.3190  -78.0430 H         1 UNK         0.0837 
    104 H104      -77.8166   26.5956  -78.0414 H         1 UNK         0.0837 
    105 H105      -78.4320   27.6181  -76.7503 H         1 UNK         0.0837 
    106 H106      -77.4513   25.6935  -75.6414 H         1 UNK         0.3020 
    107 H107      -75.1439   24.0062  -73.4614 H         1 UNK         0.1245 
    108 H108      -77.4592   23.9546  -72.3290 H         1 UNK         0.0781 
    109 H109      -77.8170   25.4560  -73.1364 H         1 UNK         0.0781 
    110 H110      -77.3711   26.8344  -69.7130 H         1 UNK         0.0836 
    111 H111      -78.4148   26.3961  -71.0301 H         1 UNK         0.0836 
    112 H112      -77.6455   23.3901  -74.8269 H         1 UNK         0.3022 
    113 H113      -76.1555   21.4514  -77.3559 H         1 UNK         0.0747 
    114 H114      -77.4749   19.5623  -76.4231 H         1 UNK         0.0793 
    115 H115      -76.0225   19.8158  -75.4708 H         1 UNK         0.0793 
    116 H116      -77.5742   20.3697  -74.8572 H         1 UNK         0.0793 
    117 H117      -78.8685   21.7482  -76.4800 H         1 UNK         0.3047 
    118 H118      -79.5464   24.7927  -78.2062 H         1 UNK         0.0822 
    119 H119      -81.2840   23.3733  -79.2420 H         1 UNK         0.0807 
    120 H120      -80.4511   21.9082  -78.7209 H         1 UNK         0.0807 
    121 H121      -79.7136   22.9697  -79.9126 H         1 UNK         0.0807 
    122 H122      -81.3088   23.2007  -76.7206 H         1 UNK         0.2946 
    123 H123      -82.1797   24.0684  -74.8077 H         1 UNK         0.1144 
    124 H124      -81.4841   23.2528  -72.5457 H         1 UNK         0.0793 
    125 H125      -79.7925   23.5477  -72.9372 H         1 UNK         0.0793 
    126 H126      -80.6988   22.3171  -73.8064 H         1 UNK         0.0793 
    127 H127      -80.5901   25.8809  -73.0811 H         1 UNK         0.2896 
@<TRIPOS>BOND
     1    1    2 1    
     2    1   67 1    
     3    1   68 1    
     4    1   69 1    
     5    2    3 2    
     6    2    4 am   BACKBONE|DICT|INTERRES
     7    4    5 1    
     8    4   70 1    
     9    5    6 1    
    10    5   65 1    
    11    5   71 1    
    12    6    7 1    
    13    6   72 1    
    14    6   73 1    
    15    7    8 1    
    16    8    9 1    
    17    8   74 1    
    18    8   75 1    
    19    9   10 ar   
    20    9   14 ar   
    21   10   11 ar   
    22   10   76 1    
    23   11   12 ar   
    24   11   48 1    
    25   12   13 ar   
    26   12   77 1    
    27   13   14 ar   
    28   13   15 1    
    29   14   78 1    
    30   15   16 1    
    31   15   79 1    
    32   15   80 1    
    33   16   17 1    
    34   17   18 1    
    35   17   81 1    
    36   17   82 1    
    37   18   19 1    
    38   18   22 1    
    39   18   83 1    
    40   19   20 am   BACKBONE|DICT|INTERRES
    41   19   21 2    
    42   20   84 1    
    43   20   85 1    
    44   22   23 am   BACKBONE|DICT|INTERRES
    45   22   86 1    
    46   23   24 2    
    47   23   25 1    
    48   25   26 1    
    49   25   27 1    
    50   25   87 1    
    51   26   88 1    
    52   26   89 1    
    53   26   90 1    
    54   27   28 am   BACKBONE|DICT|INTERRES
    55   27   91 1    
    56   28   29 2    
    57   28   30 1    
    58   30   31 1    
    59   30   32 1    
    60   30   92 1    
    61   31   93 1    
    62   31   94 1    
    63   31   95 1    
    64   32   33 am   BACKBONE|DICT|INTERRES
    65   32   96 1    
    66   33   34 2    
    67   33   35 1    
    68   35   36 1    
    69   35   37 1    
    70   35   97 1    
    71   36   98 1    
    72   36   99 1    
    73   36  100 1    
    74   37   38 am   BACKBONE|DICT|INTERRES
    75   37  101 1    
    76   38   39 2    
    77   38   40 1    
    78   40   41 1    
    79   40   42 1    
    80   40  102 1    
    81   41  103 1    
    82   41  104 1    
    83   41  105 1    
    84   42   43 am   BACKBONE|DICT|INTERRES
    85   42  106 1    
    86   43   44 2    
    87   43   45 1    
    88   45   46 1    
    89   45   49 1    
    90   45  107 1    
    91   46   47 1    
    92   46  108 1    
    93   46  109 1    
    94   47   48 1    
    95   48  110 1    
    96   48  111 1    
    97   49   50 am   BACKBONE|DICT|INTERRES
    98   49  112 1    
    99   50   51 2    
   100   50   52 1    
   101   52   53 1    
   102   52   54 1    
   103   52  113 1    
   104   53  114 1    
   105   53  115 1    
   106   53  116 1    
   107   54   55 am   BACKBONE|DICT|INTERRES
   108   54  117 1    
   109   55   56 2    
   110   55   57 1    
   111   57   58 1    
   112   57   59 1    
   113   57  118 1    
   114   58  119 1    
   115   58  120 1    
   116   58  121 1    
   117   59   60 am   BACKBONE|DICT|INTERRES
   118   59  122 1    
   119   60   61 2    
   120   60   62 1    
   121   62   63 1    
   122   62   64 1    
   123   62  123 1    
   124   63  124 1    
   125   63  125 1    
   126   63  126 1    
   127   64   65 am   BACKBONE|DICT|INTERRES
   128   64  127 1    
   129   65   66 2    
@<TRIPOS>SUBSTRUCTURE
     1 UNK         1 GROUP             0       ****    0 ROOT    
