@<TRIPOS>MOLECULE
3R135
127   129    1
SMALL
USER_CHARGES


@<TRIPOS>ATOM
      1 CA        -84.5171   28.2526  -72.4566 C.3       0 UNK        -0.1998 
      2 C         -83.1062   27.8045  -72.8039 C.2       0 UNK         0.4909 
      3 O         -82.5473   28.2527  -73.8037 O.2       0 UNK        -0.5240 
      4 N         -82.5252   26.9049  -72.0003 N.am      1 UNK        -0.4739 
      5 CA        -81.1630   26.3687  -72.1450 C.3       1 UNK         0.0864 
      6 C6        -80.5666   26.0103  -70.7533 C.3       11 UNK        -0.0881 
      7 S7        -78.8248   26.5204  -70.5558 S.3       11 UNK        -0.2682 
      8 C8        -78.9671   28.2606  -70.0326 C.3       11 UNK         0.0289 
      9 C9        -78.4900   29.1952  -71.1337 C.ar      11 UNK        -0.0687 
     10 C10       -79.3718   29.6100  -72.1342 C.ar      11 UNK        -0.0823 
     11 C11       -78.9274   30.4153  -73.1848 C.ar      11 UNK        -0.0830 
     12 C12       -77.6016   30.8584  -73.1983 C.ar      11 UNK        -0.1021 
     13 C13       -76.7148   30.4755  -72.1871 C.ar      11 UNK        -0.0753 
     14 C14       -77.1629   29.6367  -71.1610 C.ar      11 UNK        -0.0933 
     15 C15       -75.2805   30.9856  -72.2029 C.3       11 UNK         0.0166 
     16 S16       -74.2235   30.0235  -73.3300 S.3       11 UNK        -0.2615 
     17 C17       -73.7786   28.5889  -72.2898 C.3       11 UNK        -0.0865 
     18 CA        -72.3526   28.7099  -71.6767 C.3       10 UNK         0.0862 
     19 C         -72.0655   27.6098  -70.6080 C.2       10 UNK         0.5551 
     20 N         -70.8407   27.1134  -70.4830 N.am      10 UNK        -0.7319 
     21 O         -72.9547   27.2272  -69.8514 O.2       10 UNK        -0.5018 
     22 N         -71.3013   28.8784  -72.7002 N.am      10 UNK        -0.4509 
     23 C         -70.9740   27.9892  -73.6461 C.2       10 UNK         0.4899 
     24 O         -71.4693   26.8644  -73.7518 O.2       10 UNK        -0.4839 
     25 CA        -69.8889   28.4259  -74.6351 C.3       9 UNK         0.0222 
     26 CB        -68.4805   28.1655  -74.0716 C.3       9 UNK        -0.1966 
     27 N         -70.0788   27.6740  -75.8698 N.am      9 UNK        -0.4218 
     28 C         -69.7738   28.0921  -77.1024 C.2       9 UNK         0.5020 
     29 O         -69.2012   29.1569  -77.3406 O.2       9 UNK        -0.5274 
     30 CA        -70.1644   27.1737  -78.2777 C.3       8 UNK         0.0270 
     31 CB        -68.9301   26.4190  -78.7997 C.3       8 UNK        -0.1976 
     32 N         -71.2229   26.2038  -77.9676 N.am      8 UNK        -0.4313 
     33 C         -72.5020   26.5163  -77.7183 C.2       8 UNK         0.5041 
     34 O         -72.9289   27.6727  -77.6869 O.2       8 UNK        -0.5577 
     35 CA        -73.4385   25.3289  -77.4236 C.3       7 UNK         0.0284 
     36 CB        -73.2670   24.8552  -75.9709 C.3       7 UNK        -0.1958 
     37 N         -74.8498   25.6469  -77.6491 N.am      7 UNK        -0.4454 
     38 C         -75.4103   25.9104  -78.8369 C.2       7 UNK         0.5089 
     39 O         -74.7970   25.8604  -79.9047 O.2       7 UNK        -0.5125 
     40 CA        -76.9131   26.2626  -78.8577 C.3       6 UNK         0.0408 
     41 CB        -77.7188   25.1344  -79.5222 C.3       6 UNK        -0.1791 
     42 N         -77.4929   26.5353  -77.5388 N.am      6 UNK        -0.4762 
     43 C         -77.2528   27.6239  -76.7914 C.2       6 UNK         0.5007 
     44 O         -76.5114   28.5413  -77.1419 O.2       6 UNK        -0.5032 
     45 CA        -77.9381   27.6696  -75.4089 C.3       5 UNK         0.0783 
     46 C46       -79.3787   28.2382  -75.5033 C.3       11 UNK        -0.0857 
     47 S47       -79.4117   30.0242  -75.8969 S.3       11 UNK        -0.2512 
     48 C48       -79.8814   30.7898  -74.3100 C.3       11 UNK         0.0225 
     49 N         -77.9037   26.3343  -74.7945 N.am      5 UNK        -0.4615 
     50 C         -76.8085   25.8157  -74.2165 C.2       4 UNK         0.5053 
     51 O         -75.7899   26.4684  -74.0093 O.2       4 UNK        -0.5105 
     52 CA        -76.7965   24.3173  -73.8586 C.3       4 UNK         0.0263 
     53 CB        -76.9443   24.0822  -72.3489 C.3       4 UNK        -0.1981 
     54 N         -77.8107   23.5459  -74.5759 N.am      4 UNK        -0.4224 
     55 C         -77.6528   23.0864  -75.8257 C.2       3 UNK         0.4895 
     56 O         -76.6153   23.2139  -76.4741 O.2       3 UNK        -0.5091 
     57 CA        -78.8631   22.3991  -76.4849 C.3       3 UNK         0.0250 
     58 CB        -78.7936   20.8777  -76.2792 C.3       3 UNK        -0.1996 
     59 N         -80.1604   22.8940  -76.0143 N.am      3 UNK        -0.4254 
     60 C         -80.5726   24.1669  -76.0882 C.2       2 UNK         0.5004 
     61 O         -79.8950   25.0722  -76.5777 O.2       2 UNK        -0.5226 
     62 CA        -81.9374   24.5121  -75.4679 C.3       2 UNK         0.0269 
     63 CB        -82.7845   23.2832  -75.0651 C.3       2 UNK        -0.1926 
     64 N         -81.7913   25.4252  -74.3285 N.am      2 UNK        -0.4687 
     65 C         -81.0816   25.2395  -73.2039 C.2       1 UNK         0.5165 
     66 O         -80.3974   24.2355  -72.9972 O.2       1 UNK        -0.5079 
     67 H67       -84.8858   27.7734  -71.5500 H         1 UNK         0.0900 
     68 H68       -84.5396   29.3312  -72.3038 H         1 UNK         0.0900 
     69 H69       -85.1986   28.0094  -73.2712 H         1 UNK         0.0900 
     70 H70       -83.0539   26.5354  -71.2224 H         1 UNK         0.2959 
     71 H71       -80.5477   27.1595  -72.5675 H         1 UNK         0.1079 
     72 H72       -81.1332   26.4863  -69.9514 H         1 UNK         0.0837 
     73 H73       -80.6445   24.9419  -70.5435 H         1 UNK         0.0837 
     74 H74       -79.9939   28.5014  -69.7540 H         1 UNK         0.0685 
     75 H75       -78.3675   28.4061  -69.1328 H         1 UNK         0.0685 
     76 H76       -80.4039   29.2922  -72.1062 H         1 UNK         0.1434 
     77 H77       -77.2556   31.4898  -74.0056 H         1 UNK         0.1329 
     78 H78       -76.4803   29.3262  -70.3821 H         1 UNK         0.1335 
     79 H79       -74.8535   30.9789  -71.1987 H         1 UNK         0.0680 
     80 H80       -75.2737   32.0277  -72.5259 H         1 UNK         0.0680 
     81 H81       -73.8456   27.6887  -72.9004 H         1 UNK         0.1032 
     82 H82       -74.5327   28.4680  -71.5118 H         1 UNK         0.1032 
     83 H83       -72.3363   29.6382  -71.1046 H         1 UNK         0.0461 
     84 H84       -70.1017   27.4236  -71.0927 H         1 UNK         0.3453 
     85 H85       -70.6596   26.4129  -69.7816 H         1 UNK         0.3453 
     86 H86       -70.8208   29.7665  -72.6829 H         1 UNK         0.2984 
     87 H87       -70.0140   29.4921  -74.8364 H         1 UNK         0.0554 
     88 H88       -68.3244   27.1087  -73.8513 H         1 UNK         0.0847 
     89 H89       -68.3176   28.7209  -73.1473 H         1 UNK         0.0847 
     90 H90       -67.7084   28.4774  -74.7751 H         1 UNK         0.0847 
     91 H91       -70.6017   26.8150  -75.7536 H         1 UNK         0.3141 
     92 H92       -70.5316   27.8190  -79.0787 H         1 UNK         0.0743 
     93 H93       -68.5241   25.7398  -78.0488 H         1 UNK         0.0784 
     94 H94       -69.1667   25.8359  -79.6900 H         1 UNK         0.0784 
     95 H95       -68.1345   27.1137  -79.0734 H         1 UNK         0.0784 
     96 H96       -70.9521   25.2302  -77.9651 H         1 UNK         0.3213 
     97 H97       -73.1743   24.5083  -78.0940 H         1 UNK         0.0855 
     98 H98       -73.5211   25.6424  -75.2597 H         1 UNK         0.0814 
     99 H99       -72.2377   24.5573  -75.7679 H         1 UNK         0.0814 
    100 H100      -73.8986   23.9925  -75.7581 H         1 UNK         0.0814 
    101 H101      -75.4358   25.7181  -76.8310 H         1 UNK         0.3105 
    102 H102      -77.0255   27.1632  -79.4646 H         1 UNK         0.0547 
    103 H103      -77.3762   24.9580  -80.5426 H         1 UNK         0.0837 
    104 H104      -77.6151   24.1954  -78.9785 H         1 UNK         0.0837 
    105 H105      -78.7802   25.3779  -79.5747 H         1 UNK         0.0837 
    106 H106      -78.1686   25.8602  -77.1929 H         1 UNK         0.3020 
    107 H107      -77.3535   28.3446  -74.7776 H         1 UNK         0.1245 
    108 H108      -79.9045   28.0818  -74.5635 H         1 UNK         0.0781 
    109 H109      -79.9640   27.7080  -76.2563 H         1 UNK         0.0781 
    110 H110      -80.9054   30.5005  -74.0682 H         1 UNK         0.0836 
    111 H111      -79.8903   31.8742  -74.4280 H         1 UNK         0.0836 
    112 H112      -78.6827   25.7250  -75.0099 H         1 UNK         0.3022 
    113 H113      -75.8094   23.9442  -74.1401 H         1 UNK         0.0747 
    114 H114      -76.6793   23.0585  -72.0849 H         1 UNK         0.0793 
    115 H115      -76.2915   24.7440  -71.7775 H         1 UNK         0.0793 
    116 H116      -77.9647   24.2527  -72.0124 H         1 UNK         0.0793 
    117 H117      -78.7070   23.4328  -74.1143 H         1 UNK         0.3047 
    118 H118      -78.8075   22.6012  -77.5562 H         1 UNK         0.0822 
    119 H119      -79.5887   20.3661  -76.8220 H         1 UNK         0.0807 
    120 H120      -78.8769   20.6081  -75.2255 H         1 UNK         0.0807 
    121 H121      -77.8463   20.4778  -76.6441 H         1 UNK         0.0807 
    122 H122      -80.7691   22.2216  -75.5704 H         1 UNK         0.2946 
    123 H123      -82.4861   25.0558  -76.2389 H         1 UNK         0.1144 
    124 H124      -82.9496   22.6197  -75.9153 H         1 UNK         0.0793 
    125 H125      -83.7682   23.5912  -74.7105 H         1 UNK         0.0793 
    126 H126      -82.3207   22.6997  -74.2689 H         1 UNK         0.0793 
    127 H127      -82.2614   26.3204  -74.4189 H         1 UNK         0.2896 
@<TRIPOS>BOND
     1    1    2 1    
     2    1   67 1    
     3    1   68 1    
     4    1   69 1    
     5    2    3 2    
     6    2    4 am   BACKBONE|DICT|INTERRES
     7    4    5 1    
     8    4   70 1    
     9    5    6 1    
    10    5   65 1    
    11    5   71 1    
    12    6    7 1    
    13    6   72 1    
    14    6   73 1    
    15    7    8 1    
    16    8    9 1    
    17    8   74 1    
    18    8   75 1    
    19    9   10 ar   
    20    9   14 ar   
    21   10   11 ar   
    22   10   76 1    
    23   11   12 ar   
    24   11   48 1    
    25   12   13 ar   
    26   12   77 1    
    27   13   14 ar   
    28   13   15 1    
    29   14   78 1    
    30   15   16 1    
    31   15   79 1    
    32   15   80 1    
    33   16   17 1    
    34   17   18 1    
    35   17   81 1    
    36   17   82 1    
    37   18   19 1    
    38   18   22 1    
    39   18   83 1    
    40   19   20 am   BACKBONE|DICT|INTERRES
    41   19   21 2    
    42   20   84 1    
    43   20   85 1    
    44   22   23 am   BACKBONE|DICT|INTERRES
    45   22   86 1    
    46   23   24 2    
    47   23   25 1    
    48   25   26 1    
    49   25   27 1    
    50   25   87 1    
    51   26   88 1    
    52   26   89 1    
    53   26   90 1    
    54   27   28 am   BACKBONE|DICT|INTERRES
    55   27   91 1    
    56   28   29 2    
    57   28   30 1    
    58   30   31 1    
    59   30   32 1    
    60   30   92 1    
    61   31   93 1    
    62   31   94 1    
    63   31   95 1    
    64   32   33 am   BACKBONE|DICT|INTERRES
    65   32   96 1    
    66   33   34 2    
    67   33   35 1    
    68   35   36 1    
    69   35   37 1    
    70   35   97 1    
    71   36   98 1    
    72   36   99 1    
    73   36  100 1    
    74   37   38 am   BACKBONE|DICT|INTERRES
    75   37  101 1    
    76   38   39 2    
    77   38   40 1    
    78   40   41 1    
    79   40   42 1    
    80   40  102 1    
    81   41  103 1    
    82   41  104 1    
    83   41  105 1    
    84   42   43 am   BACKBONE|DICT|INTERRES
    85   42  106 1    
    86   43   44 2    
    87   43   45 1    
    88   45   46 1    
    89   45   49 1    
    90   45  107 1    
    91   46   47 1    
    92   46  108 1    
    93   46  109 1    
    94   47   48 1    
    95   48  110 1    
    96   48  111 1    
    97   49   50 am   BACKBONE|DICT|INTERRES
    98   49  112 1    
    99   50   51 2    
   100   50   52 1    
   101   52   53 1    
   102   52   54 1    
   103   52  113 1    
   104   53  114 1    
   105   53  115 1    
   106   53  116 1    
   107   54   55 am   BACKBONE|DICT|INTERRES
   108   54  117 1    
   109   55   56 2    
   110   55   57 1    
   111   57   58 1    
   112   57   59 1    
   113   57  118 1    
   114   58  119 1    
   115   58  120 1    
   116   58  121 1    
   117   59   60 am   BACKBONE|DICT|INTERRES
   118   59  122 1    
   119   60   61 2    
   120   60   62 1    
   121   62   63 1    
   122   62   64 1    
   123   62  123 1    
   124   63  124 1    
   125   63  125 1    
   126   63  126 1    
   127   64   65 am   BACKBONE|DICT|INTERRES
   128   64  127 1    
   129   65   66 2    
@<TRIPOS>SUBSTRUCTURE
     1 UNK         1 GROUP             0       ****    0 ROOT    
