@<TRIPOS>MOLECULE
3R135
127   129    1
SMALL
USER_CHARGES


@<TRIPOS>ATOM
      1 CA        -78.1037   24.0009  -69.6615 C.3       0 UNK        -0.1998 
      2 C         -78.9327   24.4061  -70.8702 C.2       0 UNK         0.4909 
      3 O         -78.7145   23.8835  -71.9630 O.2       0 UNK        -0.5240 
      4 N         -79.9041   25.3125  -70.6774 N.am      1 UNK        -0.4739 
      5 CA        -80.7704   25.9095  -71.7113 C.3       1 UNK         0.0864 
      6 C6        -79.9447   26.7431  -72.7356 C.3       11 UNK        -0.0881 
      7 S7        -80.8733   28.1552  -73.4294 S.3       11 UNK        -0.2682 
      8 C8        -80.0553   29.5811  -72.6529 C.3       11 UNK         0.0289 
      9 C9        -78.7109   29.8845  -73.2978 C.ar      11 UNK        -0.0687 
     10 C10       -78.6575   30.5101  -74.5474 C.ar      11 UNK        -0.0823 
     11 C11       -77.4268   30.8265  -75.1313 C.ar      11 UNK        -0.0830 
     12 C12       -76.2442   30.5162  -74.4530 C.ar      11 UNK        -0.1021 
     13 C13       -76.2862   29.8803  -73.2094 C.ar      11 UNK        -0.0753 
     14 C14       -77.5215   29.5665  -72.6362 C.ar      11 UNK        -0.0933 
     15 C15       -74.9992   29.5413  -72.4781 C.3       11 UNK         0.0166 
     16 S16       -74.3308   27.9501  -73.0445 S.3       11 UNK        -0.2615 
     17 C17       -73.1381   27.5736  -71.7109 C.3       11 UNK        -0.0865 
     18 CA        -71.9969   28.6139  -71.5399 C.3       10 UNK         0.0862 
     19 C         -71.0199   28.1765  -70.4090 C.2       10 UNK         0.5551 
     20 N         -69.7503   27.9102  -70.6906 N.am      10 UNK        -0.7319 
     21 O         -71.4255   28.0795  -69.2534 O.2       10 UNK        -0.5018 
     22 N         -71.3618   28.9448  -72.8252 N.am      10 UNK        -0.4509 
     23 C         -70.6184   30.0330  -73.0649 C.2       10 UNK         0.4899 
     24 O         -70.3365   30.8766  -72.2138 O.2       10 UNK        -0.4839 
     25 CA        -70.1078   30.2181  -74.5042 C.3       9 UNK         0.0222 
     26 CB        -68.6876   29.6485  -74.6476 C.3       9 UNK        -0.1966 
     27 N         -70.9803   29.5939  -75.5017 N.am      9 UNK        -0.4218 
     28 C         -72.1915   30.0351  -75.8599 C.2       9 UNK         0.5020 
     29 O         -72.6942   31.0717  -75.4257 O.2       9 UNK        -0.5274 
     30 CA        -72.9841   29.1811  -76.8671 C.3       8 UNK         0.0270 
     31 CB        -72.5069   29.4372  -78.3089 C.3       8 UNK        -0.1976 
     32 N         -73.0353   27.7404  -76.5733 N.am      8 UNK        -0.4313 
     33 C         -72.0437   26.8383  -76.5182 C.2       8 UNK         0.5041 
     34 O         -70.8520   27.1118  -76.6682 O.2       8 UNK        -0.5577 
     35 CA        -72.4442   25.3811  -76.2310 C.3       7 UNK         0.0284 
     36 CB        -72.2601   25.0463  -74.7426 C.3       7 UNK        -0.1958 
     37 N         -73.8235   25.0865  -76.6312 N.am      7 UNK        -0.4454 
     38 C         -74.1915   24.8021  -77.8880 C.2       7 UNK         0.5089 
     39 O         -73.4054   24.7028  -78.8308 O.2       7 UNK        -0.5125 
     40 CA        -75.6960   24.6070  -78.1330 C.3       6 UNK         0.0408 
     41 CB        -76.1355   23.2030  -77.6944 C.3       6 UNK        -0.1791 
     42 N         -76.5250   25.6192  -77.4687 N.am      6 UNK        -0.4762 
     43 C         -76.5583   26.9154  -77.8224 C.2       6 UNK         0.5007 
     44 O         -75.8328   27.3814  -78.7016 O.2       6 UNK        -0.5032 
     45 CA        -77.5637   27.8364  -77.0828 C.3       5 UNK         0.0783 
     46 C46       -77.9522   29.1122  -77.8844 C.3       11 UNK        -0.0857 
     47 S47       -76.6928   30.4307  -77.7828 S.3       11 UNK        -0.2512 
     48 C48       -77.3721   31.5158  -76.4873 C.3       11 UNK         0.0225 
     49 N         -78.7452   27.1184  -76.5897 N.am      5 UNK        -0.4615 
     50 C         -79.6496   26.4571  -77.3261 C.2       4 UNK         0.5053 
     51 O         -79.6172   26.3699  -78.5548 O.2       4 UNK        -0.5105 
     52 CA        -80.7765   25.7623  -76.5404 C.3       4 UNK         0.0263 
     53 CB        -82.1222   25.8611  -77.2801 C.3       4 UNK        -0.1981 
     54 N         -80.5239   24.3551  -76.2076 N.am      4 UNK        -0.4224 
     55 C         -79.4140   23.8085  -75.6881 C.2       3 UNK         0.4895 
     56 O         -78.3503   24.4062  -75.5153 O.2       3 UNK        -0.5091 
     57 CA        -79.5678   22.3593  -75.1998 C.3       3 UNK         0.0250 
     58 CB        -78.2235   21.6803  -74.8810 C.3       3 UNK        -0.1996 
     59 N         -80.3710   22.4012  -73.9813 N.am      3 UNK        -0.4254 
     60 C         -81.6875   22.1557  -73.9144 C.2       2 UNK         0.5004 
     61 O         -82.3500   21.7161  -74.8546 O.2       2 UNK        -0.5226 
     62 CA        -82.3967   22.5105  -72.5925 C.3       2 UNK         0.0269 
     63 CB        -82.4180   21.2994  -71.6465 C.3       2 UNK        -0.1926 
     64 N         -81.7720   23.6491  -71.9115 N.am      2 UNK        -0.4687 
     65 C         -81.7239   24.8975  -72.4024 C.2       1 UNK         0.5165 
     66 O         -82.3889   25.2477  -73.3778 O.2       1 UNK        -0.5079 
     67 H67       -77.0524   24.2267  -69.8381 H         1 UNK         0.0900 
     68 H68       -78.4160   24.5237  -68.7577 H         1 UNK         0.0900 
     69 H69       -78.1970   22.9298  -69.4846 H         1 UNK         0.0900 
     70 H70       -80.0528   25.6712  -69.7435 H         1 UNK         0.2959 
     71 H71       -81.4241   26.5939  -71.1679 H         1 UNK         0.1079 
     72 H72       -79.0450   27.1327  -72.2587 H         1 UNK         0.0837 
     73 H73       -79.5803   26.1129  -73.5483 H         1 UNK         0.0837 
     74 H74       -80.7039   30.4526  -72.7521 H         1 UNK         0.0685 
     75 H75       -79.9475   29.4034  -71.5816 H         1 UNK         0.0685 
     76 H76       -79.5782   30.7527  -75.0606 H         1 UNK         0.1434 
     77 H77       -75.2898   30.7627  -74.8979 H         1 UNK         0.1329 
     78 H78       -77.5555   29.0814  -71.6703 H         1 UNK         0.1335 
     79 H79       -74.2583   30.3248  -72.6462 H         1 UNK         0.0680 
     80 H80       -75.1770   29.5041  -71.4021 H         1 UNK         0.0680 
     81 H81       -73.6972   27.4705  -70.7787 H         1 UNK         0.1032 
     82 H82       -72.7174   26.5869  -71.9115 H         1 UNK         0.1032 
     83 H83       -72.4540   29.5359  -71.1765 H         1 UNK         0.0461 
     84 H84       -69.1266   27.6308  -69.9499 H         1 UNK         0.3453 
     85 H85       -69.4100   27.9944  -71.6345 H         1 UNK         0.3453 
     86 H86       -71.5525   28.3148  -73.5889 H         1 UNK         0.2984 
     87 H87       -70.0695   31.2903  -74.7077 H         1 UNK         0.0554 
     88 H88       -68.0086   30.1033  -73.9247 H         1 UNK         0.0847 
     89 H89       -68.2806   29.8449  -75.6397 H         1 UNK         0.0847 
     90 H90       -68.6652   28.5701  -74.4846 H         1 UNK         0.0847 
     91 H91       -70.6727   28.7148  -75.9200 H         1 UNK         0.3141 
     92 H92       -74.0186   29.5207  -76.8055 H         1 UNK         0.0743 
     93 H93       -72.5443   30.5008  -78.5482 H         1 UNK         0.0784 
     94 H94       -71.4809   29.1031  -78.4659 H         1 UNK         0.0784 
     95 H95       -73.1424   28.9211  -79.0290 H         1 UNK         0.0784 
     96 H96       -73.9643   27.3835  -76.4079 H         1 UNK         0.3213 
     97 H97       -71.7650   24.7436  -76.8019 H         1 UNK         0.0855 
     98 H98       -72.9686   25.5858  -74.1165 H         1 UNK         0.0814 
     99 H99       -71.2560   25.3033  -74.4017 H         1 UNK         0.0814 
    100 H100      -72.3994   23.9809  -74.5592 H         1 UNK         0.0814 
    101 H101      -74.5364   25.1215  -75.9162 H         1 UNK         0.3105 
    102 H102      -75.8701   24.6893  -79.2081 H         1 UNK         0.0547 
    103 H103      -77.1849   23.0247  -77.9289 H         1 UNK         0.0837 
    104 H104      -75.5542   22.4336  -78.2044 H         1 UNK         0.0837 
    105 H105      -75.9988   23.0586  -76.6224 H         1 UNK         0.0837 
    106 H106      -77.1632   25.2901  -76.7464 H         1 UNK         0.3020 
    107 H107      -77.0416   28.1565  -76.1796 H         1 UNK         0.1245 
    108 H108      -78.8935   29.5198  -77.5124 H         1 UNK         0.0781 
    109 H109      -78.1360   28.8740  -78.9337 H         1 UNK         0.0781 
    110 H110      -78.3597   31.8669  -76.7909 H         1 UNK         0.0836 
    111 H111      -76.7444   32.4047  -76.4095 H         1 UNK         0.0836 
    112 H112      -78.8437   27.0914  -75.5846 H         1 UNK         0.3022 
    113 H113      -80.8967   26.2894  -75.5953 H         1 UNK         0.0747 
    114 H114      -82.3459   26.8948  -77.5475 H         1 UNK         0.0793 
    115 H115      -82.1212   25.2777  -78.2017 H         1 UNK         0.0793 
    116 H116      -82.9432   25.5060  -76.6566 H         1 UNK         0.0793 
    117 H117      -81.3311   23.7514  -76.2778 H         1 UNK         0.3047 
    118 H118      -80.0667   21.7790  -75.9791 H         1 UNK         0.0822 
    119 H119      -77.6209   21.5699  -75.7815 H         1 UNK         0.0807 
    120 H120      -78.3743   20.6809  -74.4729 H         1 UNK         0.0807 
    121 H121      -77.6396   22.2498  -74.1560 H         1 UNK         0.0807 
    122 H122      -79.9128   22.8244  -73.1782 H         1 UNK         0.2946 
    123 H123      -83.4269   22.7818  -72.8347 H         1 UNK         0.1144 
    124 H124      -82.9765   21.5167  -70.7359 H         1 UNK         0.0793 
    125 H125      -81.4115   20.9923  -71.3595 H         1 UNK         0.0793 
    126 H126      -82.8973   20.4426  -72.1223 H         1 UNK         0.0793 
    127 H127      -81.2043   23.4432  -71.1022 H         1 UNK         0.2896 
@<TRIPOS>BOND
     1    1    2 1    
     2    1   67 1    
     3    1   68 1    
     4    1   69 1    
     5    2    3 2    
     6    2    4 am   BACKBONE|DICT|INTERRES
     7    4    5 1    
     8    4   70 1    
     9    5    6 1    
    10    5   65 1    
    11    5   71 1    
    12    6    7 1    
    13    6   72 1    
    14    6   73 1    
    15    7    8 1    
    16    8    9 1    
    17    8   74 1    
    18    8   75 1    
    19    9   10 ar   
    20    9   14 ar   
    21   10   11 ar   
    22   10   76 1    
    23   11   12 ar   
    24   11   48 1    
    25   12   13 ar   
    26   12   77 1    
    27   13   14 ar   
    28   13   15 1    
    29   14   78 1    
    30   15   16 1    
    31   15   79 1    
    32   15   80 1    
    33   16   17 1    
    34   17   18 1    
    35   17   81 1    
    36   17   82 1    
    37   18   19 1    
    38   18   22 1    
    39   18   83 1    
    40   19   20 am   BACKBONE|DICT|INTERRES
    41   19   21 2    
    42   20   84 1    
    43   20   85 1    
    44   22   23 am   BACKBONE|DICT|INTERRES
    45   22   86 1    
    46   23   24 2    
    47   23   25 1    
    48   25   26 1    
    49   25   27 1    
    50   25   87 1    
    51   26   88 1    
    52   26   89 1    
    53   26   90 1    
    54   27   28 am   BACKBONE|DICT|INTERRES
    55   27   91 1    
    56   28   29 2    
    57   28   30 1    
    58   30   31 1    
    59   30   32 1    
    60   30   92 1    
    61   31   93 1    
    62   31   94 1    
    63   31   95 1    
    64   32   33 am   BACKBONE|DICT|INTERRES
    65   32   96 1    
    66   33   34 2    
    67   33   35 1    
    68   35   36 1    
    69   35   37 1    
    70   35   97 1    
    71   36   98 1    
    72   36   99 1    
    73   36  100 1    
    74   37   38 am   BACKBONE|DICT|INTERRES
    75   37  101 1    
    76   38   39 2    
    77   38   40 1    
    78   40   41 1    
    79   40   42 1    
    80   40  102 1    
    81   41  103 1    
    82   41  104 1    
    83   41  105 1    
    84   42   43 am   BACKBONE|DICT|INTERRES
    85   42  106 1    
    86   43   44 2    
    87   43   45 1    
    88   45   46 1    
    89   45   49 1    
    90   45  107 1    
    91   46   47 1    
    92   46  108 1    
    93   46  109 1    
    94   47   48 1    
    95   48  110 1    
    96   48  111 1    
    97   49   50 am   BACKBONE|DICT|INTERRES
    98   49  112 1    
    99   50   51 2    
   100   50   52 1    
   101   52   53 1    
   102   52   54 1    
   103   52  113 1    
   104   53  114 1    
   105   53  115 1    
   106   53  116 1    
   107   54   55 am   BACKBONE|DICT|INTERRES
   108   54  117 1    
   109   55   56 2    
   110   55   57 1    
   111   57   58 1    
   112   57   59 1    
   113   57  118 1    
   114   58  119 1    
   115   58  120 1    
   116   58  121 1    
   117   59   60 am   BACKBONE|DICT|INTERRES
   118   59  122 1    
   119   60   61 2    
   120   60   62 1    
   121   62   63 1    
   122   62   64 1    
   123   62  123 1    
   124   63  124 1    
   125   63  125 1    
   126   63  126 1    
   127   64   65 am   BACKBONE|DICT|INTERRES
   128   64  127 1    
   129   65   66 2    
@<TRIPOS>SUBSTRUCTURE
     1 UNK         1 GROUP             0       ****    0 ROOT    
