@<TRIPOS>MOLECULE
3R135
127   129    1
SMALL
USER_CHARGES


@<TRIPOS>ATOM
      1 CA        -85.0192   28.5368  -75.5296 C.3       0 UNK        -0.1998 
      2 C         -85.1119   28.4056  -74.0117 C.2       0 UNK         0.4909 
      3 O         -86.2190   28.3901  -73.4760 O.2       0 UNK        -0.5240 
      4 N         -83.9983   28.3272  -73.2711 N.am      1 UNK        -0.4739 
      5 CA        -82.6106   28.2544  -73.7386 C.3       1 UNK         0.0864 
      6 C6        -81.6631   29.1087  -72.8487 C.3       11 UNK        -0.0881 
      7 S7        -81.7194   28.7154  -71.0606 S.3       11 UNK        -0.2682 
      8 C8        -80.4238   29.8128  -70.3984 C.3       11 UNK         0.0289 
      9 C9        -79.0476   29.4420  -70.9303 C.ar      11 UNK        -0.0687 
     10 C10       -78.4602   30.2003  -71.9469 C.ar      11 UNK        -0.0823 
     11 C11       -77.2305   29.8206  -72.4882 C.ar      11 UNK        -0.0830 
     12 C12       -76.5780   28.6915  -71.9896 C.ar      11 UNK        -0.1021 
     13 C13       -77.1362   27.9401  -70.9515 C.ar      11 UNK        -0.0753 
     14 C14       -78.3755   28.3234  -70.4271 C.ar      11 UNK        -0.0933 
     15 C15       -76.4460   26.6831  -70.4307 C.3       11 UNK         0.0166 
     16 S16       -74.7162   26.9513  -69.9111 S.3       11 UNK        -0.2615 
     17 C17       -73.7796   26.6992  -71.4624 C.3       11 UNK        -0.0865 
     18 CA        -72.9387   27.9417  -71.8726 C.3       10 UNK         0.0862 
     19 C         -71.5307   27.9283  -71.1990 C.2       10 UNK         0.5551 
     20 N         -70.4359   27.7710  -71.9352 N.am      10 UNK        -0.7319 
     21 O         -71.4276   28.0727  -69.9837 O.2       10 UNK        -0.5018 
     22 N         -72.9176   28.1172  -73.3357 N.am      10 UNK        -0.4509 
     23 C         -72.5297   29.2411  -73.9572 C.2       10 UNK         0.4899 
     24 O         -72.3195   30.3022  -73.3684 O.2       10 UNK        -0.4839 
     25 CA        -72.3365   29.1713  -75.4888 C.3       9 UNK         0.0222 
     26 CB        -71.2817   30.1781  -75.9950 C.3       9 UNK        -0.1966 
     27 N         -72.0462   27.8198  -75.9966 N.am      9 UNK        -0.4218 
     28 C         -71.0199   27.0322  -75.6363 C.2       9 UNK         0.5020 
     29 O         -70.1421   27.3871  -74.8476 O.2       9 UNK        -0.5274 
     30 CA        -70.9676   25.5992  -76.1923 C.3       8 UNK         0.0270 
     31 CB        -70.8431   24.5732  -75.0484 C.3       8 UNK        -0.1976 
     32 N         -72.1266   25.2347  -77.0178 N.am      8 UNK        -0.4313 
     33 C         -72.0329   24.5652  -78.1760 C.2       8 UNK         0.5041 
     34 O         -70.9643   24.3230  -78.7400 O.2       8 UNK        -0.5577 
     35 CA        -73.3290   24.0300  -78.8081 C.3       7 UNK         0.0284 
     36 CB        -73.6725   22.6428  -78.2418 C.3       7 UNK        -0.1958 
     37 N         -74.4856   24.9163  -78.6693 N.am      7 UNK        -0.4454 
     38 C         -74.6663   26.0221  -79.4052 C.2       7 UNK         0.5089 
     39 O         -73.8294   26.4730  -80.1875 O.2       7 UNK        -0.5125 
     40 CA        -76.0179   26.7361  -79.2538 C.3       6 UNK         0.0408 
     41 CB        -77.1213   25.9918  -80.0236 C.3       6 UNK        -0.1791 
     42 N         -76.3975   26.8662  -77.8485 N.am      6 UNK        -0.4762 
     43 C         -75.9203   27.8182  -77.0348 C.2       6 UNK         0.5007 
     44 O         -75.1617   28.7110  -77.4091 O.2       6 UNK        -0.5032 
     45 CA        -76.3255   27.7354  -75.5493 C.3       5 UNK         0.0783 
     46 C46       -77.6572   28.4797  -75.2816 C.3       11 UNK        -0.0857 
     47 S47       -77.4941   30.2991  -75.2202 S.3       11 UNK        -0.2512 
     48 C48       -76.6226   30.5987  -73.6446 C.3       11 UNK         0.0225 
     49 N         -76.3846   26.3433  -75.0900 N.am      5 UNK        -0.4615 
     50 C         -75.3111   25.5508  -74.9491 C.2       4 UNK         0.5053 
     51 O         -74.1571   25.9601  -75.0646 O.2       4 UNK        -0.5105 
     52 CA        -75.5280   24.0513  -74.6706 C.3       4 UNK         0.0263 
     53 CB        -75.2021   23.7044  -73.2112 C.3       4 UNK        -0.1981 
     54 N         -76.8702   23.5705  -74.9964 N.am      4 UNK        -0.4224 
     55 C         -77.4027   23.5438  -76.2262 C.2       3 UNK         0.4895 
     56 O         -76.7825   23.8548  -77.2439 O.2       3 UNK        -0.5091 
     57 CA        -78.8975   23.1842  -76.3216 C.3       3 UNK         0.0250 
     58 CB        -79.0703   21.6823  -76.5956 C.3       3 UNK        -0.1996 
     59 N         -79.6721   23.5615  -75.1282 N.am      3 UNK        -0.4254 
     60 C         -79.7968   24.8159  -74.6695 C.2       2 UNK         0.5004 
     61 O         -79.2697   25.7906  -75.2093 O.2       2 UNK        -0.5226 
     62 CA        -80.5494   25.0000  -73.3421 C.3       2 UNK         0.0269 
     63 CB        -79.5863   24.7929  -72.1609 C.3       2 UNK        -0.1926 
     64 N         -81.1284   26.3399  -73.2335 N.am      2 UNK        -0.4687 
     65 C         -82.1975   26.7732  -73.9126 C.2       1 UNK         0.5165 
     66 O         -82.8556   26.0466  -74.6605 O.2       1 UNK        -0.5079 
     67 H67       -84.4834   27.6956  -75.9672 H         1 UNK         0.0900 
     68 H68       -84.5145   29.4617  -75.8073 H         1 UNK         0.0900 
     69 H69       -86.0149   28.5581  -75.9723 H         1 UNK         0.0900 
     70 H70       -84.0972   28.2389  -72.2693 H         1 UNK         0.2959 
     71 H71       -82.5396   28.6830  -74.7393 H         1 UNK         0.1079 
     72 H72       -80.6381   29.0319  -73.2148 H         1 UNK         0.0837 
     73 H73       -81.9276   30.1617  -72.9591 H         1 UNK         0.0837 
     74 H74       -80.6688   30.8483  -70.6399 H         1 UNK         0.0685 
     75 H75       -80.4233   29.7440  -69.3096 H         1 UNK         0.0685 
     76 H76       -78.9765   31.0625  -72.3466 H         1 UNK         0.1434 
     77 H77       -75.6408   28.3931  -72.4291 H         1 UNK         0.1329 
     78 H78       -78.8356   27.7368  -69.6435 H         1 UNK         0.1335 
     79 H79       -76.9880   26.2916  -69.5685 H         1 UNK         0.0680 
     80 H80       -76.4959   25.9050  -71.1900 H         1 UNK         0.0680 
     81 H81       -74.4886   26.4471  -72.2490 H         1 UNK         0.1032 
     82 H82       -73.1523   25.8117  -71.3573 H         1 UNK         0.1032 
     83 H83       -73.4412   28.8281  -71.4801 H         1 UNK         0.0461 
     84 H84       -69.5375   27.7708  -71.4798 H         1 UNK         0.3453 
     85 H85       -70.4845   27.6661  -72.9439 H         1 UNK         0.3453 
     86 H86       -73.0887   27.2914  -73.8988 H         1 UNK         0.2984 
     87 H87       -73.2924   29.4681  -75.9150 H         1 UNK         0.0554 
     88 H88       -71.1729   30.1273  -77.0783 H         1 UNK         0.0847 
     89 H89       -70.3026   29.9977  -75.5500 H         1 UNK         0.0847 
     90 H90       -71.5656   31.2021  -75.7492 H         1 UNK         0.0847 
     91 H91       -72.7299   27.4416  -76.6365 H         1 UNK         0.3141 
     92 H92       -70.0528   25.5562  -76.7867 H         1 UNK         0.0743 
     93 H93       -71.7178   24.5915  -74.3968 H         1 UNK         0.0784 
     94 H94       -70.7353   23.5599  -75.4355 H         1 UNK         0.0784 
     95 H95       -69.9685   24.7731  -74.4278 H         1 UNK         0.0784 
     96 H96       -73.0362   25.3796  -76.5904 H         1 UNK         0.3213 
     97 H97       -73.1358   23.9045  -79.8762 H         1 UNK         0.0855 
     98 H98       -73.8523   22.6736  -77.1685 H         1 UNK         0.0814 
     99 H99       -72.8549   21.9409  -78.4121 H         1 UNK         0.0814 
    100 H100      -74.5605   22.2268  -78.7184 H         1 UNK         0.0814 
    101 H101      -75.2558   24.5876  -78.0909 H         1 UNK         0.3105 
    102 H102      -75.9245   27.7325  -79.6918 H         1 UNK         0.0547 
    103 H103      -76.8660   25.9052  -81.0806 H         1 UNK         0.0837 
    104 H104      -77.2775   24.9816  -79.6441 H         1 UNK         0.0837 
    105 H105      -78.0718   26.5219  -79.9636 H         1 UNK         0.0837 
    106 H106      -76.9759   26.1323  -77.4605 H         1 UNK         0.3020 
    107 H107      -75.5356   28.2238  -74.9766 H         1 UNK         0.1245 
    108 H108      -78.1008   28.1431  -74.3441 H         1 UNK         0.0781 
    109 H109      -78.4007   28.2304  -76.0413 H         1 UNK         0.0781 
    110 H110      -76.6554   31.6658  -73.4206 H         1 UNK         0.0836 
    111 H111      -75.5668   30.3512  -73.7647 H         1 UNK         0.0836 
    112 H112      -77.3177   25.9520  -75.0013 H         1 UNK         0.3022 
    113 H113      -74.8222   23.5112  -75.3015 H         1 UNK         0.0747 
    114 H114      -75.2295   22.6269  -73.0477 H         1 UNK         0.0793 
    115 H115      -74.2001   24.0405  -72.9416 H         1 UNK         0.0793 
    116 H116      -75.9061   24.1627  -72.5187 H         1 UNK         0.0793 
    117 H117      -77.4537   23.2918  -74.2218 H         1 UNK         0.3047 
    118 H118      -79.3074   23.7375  -77.1694 H         1 UNK         0.0822 
    119 H119      -80.1170   21.4266  -76.7616 H         1 UNK         0.0807 
    120 H120      -78.7018   21.0739  -75.7686 H         1 UNK         0.0807 
    121 H121      -78.5209   21.3837  -77.4899 H         1 UNK         0.0807 
    122 H122      -80.1224   22.8091  -74.6261 H         1 UNK         0.2946 
    123 H123      -81.3556   24.2648  -73.2856 H         1 UNK         0.1144 
    124 H124      -79.1583   23.7897  -72.1689 H         1 UNK         0.0793 
    125 H125      -80.0976   24.9164  -71.2058 H         1 UNK         0.0793 
    126 H126      -78.7589   25.5032  -72.1898 H         1 UNK         0.0793 
    127 H127      -80.6500   26.9941  -72.6297 H         1 UNK         0.2896 
@<TRIPOS>BOND
     1    1    2 1    
     2    1   67 1    
     3    1   68 1    
     4    1   69 1    
     5    2    3 2    
     6    2    4 am   BACKBONE|DICT|INTERRES
     7    4    5 1    
     8    4   70 1    
     9    5    6 1    
    10    5   65 1    
    11    5   71 1    
    12    6    7 1    
    13    6   72 1    
    14    6   73 1    
    15    7    8 1    
    16    8    9 1    
    17    8   74 1    
    18    8   75 1    
    19    9   10 ar   
    20    9   14 ar   
    21   10   11 ar   
    22   10   76 1    
    23   11   12 ar   
    24   11   48 1    
    25   12   13 ar   
    26   12   77 1    
    27   13   14 ar   
    28   13   15 1    
    29   14   78 1    
    30   15   16 1    
    31   15   79 1    
    32   15   80 1    
    33   16   17 1    
    34   17   18 1    
    35   17   81 1    
    36   17   82 1    
    37   18   19 1    
    38   18   22 1    
    39   18   83 1    
    40   19   20 am   BACKBONE|DICT|INTERRES
    41   19   21 2    
    42   20   84 1    
    43   20   85 1    
    44   22   23 am   BACKBONE|DICT|INTERRES
    45   22   86 1    
    46   23   24 2    
    47   23   25 1    
    48   25   26 1    
    49   25   27 1    
    50   25   87 1    
    51   26   88 1    
    52   26   89 1    
    53   26   90 1    
    54   27   28 am   BACKBONE|DICT|INTERRES
    55   27   91 1    
    56   28   29 2    
    57   28   30 1    
    58   30   31 1    
    59   30   32 1    
    60   30   92 1    
    61   31   93 1    
    62   31   94 1    
    63   31   95 1    
    64   32   33 am   BACKBONE|DICT|INTERRES
    65   32   96 1    
    66   33   34 2    
    67   33   35 1    
    68   35   36 1    
    69   35   37 1    
    70   35   97 1    
    71   36   98 1    
    72   36   99 1    
    73   36  100 1    
    74   37   38 am   BACKBONE|DICT|INTERRES
    75   37  101 1    
    76   38   39 2    
    77   38   40 1    
    78   40   41 1    
    79   40   42 1    
    80   40  102 1    
    81   41  103 1    
    82   41  104 1    
    83   41  105 1    
    84   42   43 am   BACKBONE|DICT|INTERRES
    85   42  106 1    
    86   43   44 2    
    87   43   45 1    
    88   45   46 1    
    89   45   49 1    
    90   45  107 1    
    91   46   47 1    
    92   46  108 1    
    93   46  109 1    
    94   47   48 1    
    95   48  110 1    
    96   48  111 1    
    97   49   50 am   BACKBONE|DICT|INTERRES
    98   49  112 1    
    99   50   51 2    
   100   50   52 1    
   101   52   53 1    
   102   52   54 1    
   103   52  113 1    
   104   53  114 1    
   105   53  115 1    
   106   53  116 1    
   107   54   55 am   BACKBONE|DICT|INTERRES
   108   54  117 1    
   109   55   56 2    
   110   55   57 1    
   111   57   58 1    
   112   57   59 1    
   113   57  118 1    
   114   58  119 1    
   115   58  120 1    
   116   58  121 1    
   117   59   60 am   BACKBONE|DICT|INTERRES
   118   59  122 1    
   119   60   61 2    
   120   60   62 1    
   121   62   63 1    
   122   62   64 1    
   123   62  123 1    
   124   63  124 1    
   125   63  125 1    
   126   63  126 1    
   127   64   65 am   BACKBONE|DICT|INTERRES
   128   64  127 1    
   129   65   66 2    
@<TRIPOS>SUBSTRUCTURE
     1 UNK         1 GROUP             0       ****    0 ROOT    
