@<TRIPOS>MOLECULE
3R135
127   129    1
SMALL
USER_CHARGES


@<TRIPOS>ATOM
      1 CA        -80.0076   22.4542  -71.4761 C.3       0 UNK        -0.1998 
      2 C         -80.7751   23.5030  -72.2653 C.2       0 UNK         0.4909 
      3 O         -81.5410   23.1476  -73.1620 O.2       0 UNK        -0.5240 
      4 N         -80.5672   24.7882  -71.9421 N.am      1 UNK        -0.4739 
      5 CA        -81.1890   25.9641  -72.5663 C.3       1 UNK         0.0864 
      6 C6        -80.6218   27.2872  -71.9983 C.3       11 UNK        -0.0881 
      7 S7        -80.6858   27.4438  -70.1847 S.3       11 UNK        -0.2682 
      8 C8        -80.3935   29.2355  -69.9922 C.3       11 UNK         0.0289 
      9 C9        -79.1495   29.7076  -70.7380 C.ar      11 UNK        -0.0687 
     10 C10       -79.2697   30.2921  -72.0043 C.ar      11 UNK        -0.0823 
     11 C11       -78.1369   30.7078  -72.7101 C.ar      11 UNK        -0.0830 
     12 C12       -76.8780   30.5693  -72.1195 C.ar      11 UNK        -0.1021 
     13 C13       -76.7412   29.9825  -70.8576 C.ar      11 UNK        -0.0753 
     14 C14       -77.8809   29.5518  -70.1706 C.ar      11 UNK        -0.0933 
     15 C15       -75.3587   29.8293  -70.2429 C.3       11 UNK         0.0166 
     16 S16       -74.3221   28.6967  -71.2208 S.3       11 UNK        -0.2615 
     17 C17       -72.6777   29.0250  -70.4991 C.3       11 UNK        -0.0865 
     18 CA        -71.9950   30.3099  -71.0599 C.3       10 UNK         0.0862 
     19 C         -70.6355   30.6162  -70.3586 C.2       10 UNK         0.5551 
     20 N         -69.6568   31.1984  -71.0410 N.am      10 UNK        -0.7319 
     21 O         -70.4736   30.3547  -69.1689 O.2       10 UNK        -0.5018 
     22 N         -71.9637   30.3672  -72.5346 N.am      10 UNK        -0.4509 
     23 C         -71.3147   29.5240  -73.3462 C.2       10 UNK         0.4899 
     24 O         -70.6142   28.5856  -72.9589 O.2       10 UNK        -0.4839 
     25 CA        -71.4349   29.8236  -74.8505 C.3       9 UNK         0.0222 
     26 CB        -70.4169   30.8985  -75.2679 C.3       9 UNK        -0.1966 
     27 N         -71.2103   28.6199  -75.6514 N.am      9 UNK        -0.4218 
     28 C         -72.1051   27.6378  -75.8102 C.2       9 UNK         0.5020 
     29 O         -73.2596   27.6798  -75.3828 O.2       9 UNK        -0.5274 
     30 CA        -71.6024   26.3905  -76.5446 C.3       8 UNK         0.0270 
     31 CB        -70.8125   25.4765  -75.5879 C.3       8 UNK        -0.1976 
     32 N         -72.7250   25.6498  -77.1179 N.am      8 UNK        -0.4313 
     33 C         -72.6335   24.8427  -78.1826 C.2       8 UNK         0.5041 
     34 O         -71.5897   24.6594  -78.8117 O.2       8 UNK        -0.5577 
     35 CA        -73.9044   24.1085  -78.6311 C.3       7 UNK         0.0284 
     36 CB        -74.1453   22.8591  -77.7669 C.3       7 UNK        -0.1958 
     37 N         -75.0828   24.9736  -78.5869 N.am      7 UNK        -0.4454 
     38 C         -75.5269   25.7016  -79.6213 C.2       7 UNK         0.5089 
     39 O         -74.9725   25.7344  -80.7206 O.2       7 UNK        -0.5125 
     40 CA        -76.8224   26.5115  -79.4212 C.3       6 UNK         0.0408 
     41 CB        -78.0142   25.7607  -80.0348 C.3       6 UNK        -0.1791 
     42 N         -77.1125   26.8004  -78.0159 N.am      6 UNK        -0.4762 
     43 C         -76.4765   27.7294  -77.2868 C.2       6 UNK         0.5007 
     44 O         -75.6336   28.4957  -77.7544 O.2       6 UNK        -0.5032 
     45 CA        -76.8162   27.7804  -75.7806 C.3       5 UNK         0.0783 
     46 C46       -77.9049   28.8410  -75.4642 C.3       11 UNK        -0.0857 
     47 S47       -77.2179   30.5291  -75.3584 S.3       11 UNK        -0.2512 
     48 C48       -78.2815   31.3192  -74.1005 C.3       11 UNK         0.0225 
     49 N         -77.1859   26.4667  -75.2395 N.am      5 UNK        -0.4615 
     50 C         -76.3792   25.3996  -75.1687 C.2       4 UNK         0.5053 
     51 O         -75.2566   25.3530  -75.6676 O.2       4 UNK        -0.5105 
     52 CA        -76.9292   24.1671  -74.4456 C.3       4 UNK         0.0263 
     53 CB        -77.0935   24.4491  -72.9423 C.3       4 UNK        -0.1981 
     54 N         -78.2089   23.7469  -75.0174 N.am      4 UNK        -0.4224 
     55 C         -78.3485   22.7886  -75.9447 C.2       3 UNK         0.4895 
     56 O         -77.4020   22.1771  -76.4399 O.2       3 UNK        -0.5091 
     57 CA        -79.7767   22.4182  -76.3868 C.3       3 UNK         0.0250 
     58 CB        -80.2151   21.1024  -75.7228 C.3       3 UNK        -0.1996 
     59 N         -80.7632   23.4569  -76.0828 N.am      3 UNK        -0.4254 
     60 C         -80.9884   24.5276  -76.8581 C.2       2 UNK         0.5004 
     61 O         -80.4263   24.7206  -77.9354 O.2       2 UNK        -0.5226 
     62 CA        -81.9801   25.5845  -76.3330 C.3       2 UNK         0.0269 
     63 CB        -83.3916   25.3142  -76.8777 C.3       2 UNK        -0.1926 
     64 N         -82.0350   25.6853  -74.8689 N.am      2 UNK        -0.4687 
     65 C         -80.9795   25.9612  -74.0919 C.2       1 UNK         0.5165 
     66 O         -79.8473   26.1632  -74.5340 O.2       1 UNK        -0.5079 
     67 H67       -80.7023   21.7739  -70.9844 H         1 UNK         0.0900 
     68 H68       -79.3757   21.8708  -72.1453 H         1 UNK         0.0900 
     69 H69       -79.3726   22.9018  -70.7119 H         1 UNK         0.0900 
     70 H70       -79.9349   25.0062  -71.1850 H         1 UNK         0.2959 
     71 H71       -82.2592   25.9242  -72.3543 H         1 UNK         0.1079 
     72 H72       -81.1632   28.1303  -72.4317 H         1 UNK         0.0837 
     73 H73       -79.5753   27.4098  -72.2876 H         1 UNK         0.0837 
     74 H74       -81.2734   29.7788  -70.3405 H         1 UNK         0.0685 
     75 H75       -80.2959   29.4662  -68.9303 H         1 UNK         0.0685 
     76 H76       -80.2493   30.4104  -72.4468 H         1 UNK         0.1434 
     77 H77       -75.9965   30.8986  -72.6530 H         1 UNK         0.1329 
     78 H78       -77.7842   29.0934  -69.1959 H         1 UNK         0.1335 
     79 H79       -75.4230   29.4608  -69.2180 H         1 UNK         0.0680 
     80 H80       -74.8896   30.8123  -70.1928 H         1 UNK         0.0680 
     81 H81       -72.0474   28.1537  -70.6842 H         1 UNK         0.1032 
     82 H82       -72.7860   29.0873  -69.4146 H         1 UNK         0.1032 
     83 H83       -72.6251   31.1510  -70.7709 H         1 UNK         0.0461 
     84 H84       -69.7794   31.4253  -72.0143 H         1 UNK         0.3453 
     85 H85       -68.7852   31.4038  -70.5784 H         1 UNK         0.3453 
     86 H86       -72.4921   31.1221  -72.9474 H         1 UNK         0.2984 
     87 H87       -72.4411   30.1967  -75.0554 H         1 UNK         0.0554 
     88 H88       -69.3913   30.5843  -75.0689 H         1 UNK         0.0847 
     89 H89       -70.5829   31.8299  -74.7250 H         1 UNK         0.0847 
     90 H90       -70.4967   31.1294  -76.3304 H         1 UNK         0.0847 
     91 H91       -70.2705   28.4770  -75.9918 H         1 UNK         0.3141 
     92 H92       -70.9456   26.7227  -77.3518 H         1 UNK         0.0743 
     93 H93       -71.4444   25.1049  -74.7799 H         1 UNK         0.0784 
     94 H94       -70.3969   24.6152  -76.1111 H         1 UNK         0.0784 
     95 H95       -69.9780   26.0093  -75.1300 H         1 UNK         0.0784 
     96 H96       -73.6143   25.7650  -76.6322 H         1 UNK         0.3213 
     97 H97       -73.7447   23.7684  -79.6570 H         1 UNK         0.0855 
     98 H98       -74.2994   23.1089  -76.7170 H         1 UNK         0.0814 
     99 H99       -73.2920   22.1816  -77.8172 H         1 UNK         0.0814 
    100 H100      -75.0199   22.3046  -78.1077 H         1 UNK         0.0814 
    101 H101      -75.5428   25.0619  -77.6887 H         1 UNK         0.3105 
    102 H102      -76.7080   27.4579  -79.9541 H         1 UNK         0.0547 
    103 H103      -77.8542   25.5759  -81.0979 H         1 UNK         0.0837 
    104 H104      -78.1711   24.7928  -79.5567 H         1 UNK         0.0837 
    105 H105      -78.9374   26.3330  -79.9418 H         1 UNK         0.0837 
    106 H106      -77.8008   26.2178  -77.5595 H         1 UNK         0.3020 
    107 H107      -75.8969   28.0665  -75.2636 H         1 UNK         0.1245 
    108 H108      -78.3696   28.6130  -74.5037 H         1 UNK         0.0781 
    109 H109      -78.7155   28.8188  -76.1951 H         1 UNK         0.0781 
    110 H110      -79.3169   31.2731  -74.4417 H         1 UNK         0.0836 
    111 H111      -78.0255   32.3779  -74.0424 H         1 UNK         0.0836 
    112 H112      -78.1305   26.3913  -74.8649 H         1 UNK         0.3022 
    113 H113      -76.1945   23.3654  -74.5503 H         1 UNK         0.0747 
    114 H114      -77.3960   23.5515  -72.4044 H         1 UNK         0.0793 
    115 H115      -76.1515   24.7832  -72.5048 H         1 UNK         0.0793 
    116 H116      -77.8333   25.2260  -72.7476 H         1 UNK         0.0793 
    117 H117      -79.0271   24.2704  -74.7317 H         1 UNK         0.3047 
    118 H118      -79.7516   22.2572  -77.4670 H         1 UNK         0.0822 
    119 H119      -81.2040   20.7960  -76.0644 H         1 UNK         0.0807 
    120 H120      -80.2475   21.1879  -74.6362 H         1 UNK         0.0807 
    121 H121      -79.5245   20.2934  -75.9652 H         1 UNK         0.0807 
    122 H122      -81.2487   23.3818  -75.1934 H         1 UNK         0.2946 
    123 H123      -81.6436   26.5511  -76.7150 H         1 UNK         0.1144 
    124 H124      -83.3851   25.2565  -77.9673 H         1 UNK         0.0793 
    125 H125      -84.0836   26.1103  -76.6021 H         1 UNK         0.0793 
    126 H126      -83.7948   24.3722  -76.5038 H         1 UNK         0.0793 
    127 H127      -82.9240   25.4831  -74.4337 H         1 UNK         0.2896 
@<TRIPOS>BOND
     1    1    2 1    
     2    1   67 1    
     3    1   68 1    
     4    1   69 1    
     5    2    3 2    
     6    2    4 am   BACKBONE|DICT|INTERRES
     7    4    5 1    
     8    4   70 1    
     9    5    6 1    
    10    5   65 1    
    11    5   71 1    
    12    6    7 1    
    13    6   72 1    
    14    6   73 1    
    15    7    8 1    
    16    8    9 1    
    17    8   74 1    
    18    8   75 1    
    19    9   10 ar   
    20    9   14 ar   
    21   10   11 ar   
    22   10   76 1    
    23   11   12 ar   
    24   11   48 1    
    25   12   13 ar   
    26   12   77 1    
    27   13   14 ar   
    28   13   15 1    
    29   14   78 1    
    30   15   16 1    
    31   15   79 1    
    32   15   80 1    
    33   16   17 1    
    34   17   18 1    
    35   17   81 1    
    36   17   82 1    
    37   18   19 1    
    38   18   22 1    
    39   18   83 1    
    40   19   20 am   BACKBONE|DICT|INTERRES
    41   19   21 2    
    42   20   84 1    
    43   20   85 1    
    44   22   23 am   BACKBONE|DICT|INTERRES
    45   22   86 1    
    46   23   24 2    
    47   23   25 1    
    48   25   26 1    
    49   25   27 1    
    50   25   87 1    
    51   26   88 1    
    52   26   89 1    
    53   26   90 1    
    54   27   28 am   BACKBONE|DICT|INTERRES
    55   27   91 1    
    56   28   29 2    
    57   28   30 1    
    58   30   31 1    
    59   30   32 1    
    60   30   92 1    
    61   31   93 1    
    62   31   94 1    
    63   31   95 1    
    64   32   33 am   BACKBONE|DICT|INTERRES
    65   32   96 1    
    66   33   34 2    
    67   33   35 1    
    68   35   36 1    
    69   35   37 1    
    70   35   97 1    
    71   36   98 1    
    72   36   99 1    
    73   36  100 1    
    74   37   38 am   BACKBONE|DICT|INTERRES
    75   37  101 1    
    76   38   39 2    
    77   38   40 1    
    78   40   41 1    
    79   40   42 1    
    80   40  102 1    
    81   41  103 1    
    82   41  104 1    
    83   41  105 1    
    84   42   43 am   BACKBONE|DICT|INTERRES
    85   42  106 1    
    86   43   44 2    
    87   43   45 1    
    88   45   46 1    
    89   45   49 1    
    90   45  107 1    
    91   46   47 1    
    92   46  108 1    
    93   46  109 1    
    94   47   48 1    
    95   48  110 1    
    96   48  111 1    
    97   49   50 am   BACKBONE|DICT|INTERRES
    98   49  112 1    
    99   50   51 2    
   100   50   52 1    
   101   52   53 1    
   102   52   54 1    
   103   52  113 1    
   104   53  114 1    
   105   53  115 1    
   106   53  116 1    
   107   54   55 am   BACKBONE|DICT|INTERRES
   108   54  117 1    
   109   55   56 2    
   110   55   57 1    
   111   57   58 1    
   112   57   59 1    
   113   57  118 1    
   114   58  119 1    
   115   58  120 1    
   116   58  121 1    
   117   59   60 am   BACKBONE|DICT|INTERRES
   118   59  122 1    
   119   60   61 2    
   120   60   62 1    
   121   62   63 1    
   122   62   64 1    
   123   62  123 1    
   124   63  124 1    
   125   63  125 1    
   126   63  126 1    
   127   64   65 am   BACKBONE|DICT|INTERRES
   128   64  127 1    
   129   65   66 2    
@<TRIPOS>SUBSTRUCTURE
     1 UNK         1 GROUP             0       ****    0 ROOT    
