@<TRIPOS>MOLECULE
3R135
127   129    1
SMALL
USER_CHARGES


@<TRIPOS>ATOM
      1 CA        -83.2407   23.3953  -69.5691 C.3       0 UNK        -0.1998 
      2 C         -83.1981   24.5805  -70.5221 C.2       0 UNK         0.4909 
      3 O         -84.2168   24.9172  -71.1271 O.2       0 UNK        -0.5240 
      4 N         -82.0302   25.2217  -70.6506 N.am      1 UNK        -0.4739 
      5 CA        -81.7711   26.3281  -71.5773 C.3       1 UNK         0.0864 
      6 C6        -80.5042   27.1383  -71.1912 C.3       11 UNK        -0.0881 
      7 S7        -79.0659   26.1351  -70.6694 S.3       11 UNK        -0.2682 
      8 C8        -77.9680   26.2582  -72.1108 C.3       11 UNK         0.0289 
      9 C9        -77.4116   27.6587  -72.3089 C.ar      11 UNK        -0.0687 
     10 C10       -77.8114   28.4092  -73.4153 C.ar      11 UNK        -0.0823 
     11 C11       -77.2500   29.6628  -73.6668 C.ar      11 UNK        -0.0830 
     12 C12       -76.3074   30.1842  -72.7738 C.ar      11 UNK        -0.1021 
     13 C13       -75.9269   29.4592  -71.6387 C.ar      11 UNK        -0.0753 
     14 C14       -76.4759   28.1916  -71.4170 C.ar      11 UNK        -0.0933 
     15 C15       -74.9344   30.0475  -70.6457 C.3       11 UNK         0.0166 
     16 S16       -73.2833   29.3063  -70.8362 S.3       11 UNK        -0.2615 
     17 C17       -72.2103   30.7818  -70.9243 C.3       11 UNK        -0.0865 
     18 CA        -72.0791   31.3548  -72.3602 C.3       10 UNK         0.0862 
     19 C         -71.1392   32.5911  -72.3685 C.2       10 UNK         0.5551 
     20 N         -71.6860   33.7870  -72.1983 N.am      10 UNK        -0.7319 
     21 O         -69.9203   32.4698  -72.4781 O.2       10 UNK        -0.5018 
     22 N         -71.6776   30.3159  -73.3182 N.am      10 UNK        -0.4509 
     23 C         -71.6435   30.4480  -74.6497 C.2       10 UNK         0.4899 
     24 O         -71.8991   31.4954  -75.2455 O.2       10 UNK        -0.4839 
     25 CA        -71.2788   29.1929  -75.4684 C.3       9 UNK         0.0222 
     26 CB        -69.8002   29.2388  -75.8873 C.3       9 UNK        -0.1966 
     27 N         -71.5494   27.9141  -74.7970 N.am      9 UNK        -0.4218 
     28 C         -72.7581   27.4880  -74.4044 C.2       9 UNK         0.5020 
     29 O         -73.7912   28.1414  -74.5340 O.2       9 UNK        -0.5274 
     30 CA        -72.8199   26.0785  -73.7976 C.3       8 UNK         0.0270 
     31 CB        -73.9561   25.9349  -72.7685 C.3       8 UNK        -0.1976 
     32 N         -73.0333   25.1034  -74.8611 N.am      8 UNK        -0.4313 
     33 C         -72.0805   24.5964  -75.6523 C.2       8 UNK         0.5041 
     34 O         -70.8852   24.8761  -75.5478 O.2       8 UNK        -0.5577 
     35 CA        -72.5392   23.6195  -76.7438 C.3       7 UNK         0.0284 
     36 CB        -72.9547   22.2715  -76.1299 C.3       7 UNK        -0.1958 
     37 N         -73.6634   24.1774  -77.4964 N.am      7 UNK        -0.4454 
     38 C         -73.5887   24.6611  -78.7441 C.2       7 UNK         0.5089 
     39 O         -72.5659   24.6370  -79.4297 O.2       7 UNK        -0.5125 
     40 CA        -74.8707   25.2762  -79.3423 C.3       6 UNK         0.0408 
     41 CB        -75.5948   24.2465  -80.2233 C.3       6 UNK        -0.1791 
     42 N         -75.8036   25.7858  -78.3332 N.am      6 UNK        -0.4762 
     43 C         -75.5546   26.8305  -77.5253 C.2       6 UNK         0.5007 
     44 O         -74.5483   27.5305  -77.6341 O.2       6 UNK        -0.5032 
     45 CA        -76.5827   27.1282  -76.4039 C.3       5 UNK         0.0783 
     46 C46       -77.4842   28.3327  -76.7947 C.3       11 UNK        -0.0857 
     47 S47       -76.7329   29.9466  -76.3829 S.3       11 UNK        -0.2512 
     48 C48       -77.6682   30.4504  -74.9006 C.3       11 UNK         0.0225 
     49 N         -77.3836   25.9538  -76.0136 N.am      5 UNK        -0.4615 
     50 C         -76.8931   24.7734  -75.5950 C.2       4 UNK         0.5053 
     51 O         -75.6980   24.5786  -75.3776 O.2       4 UNK        -0.5105 
     52 CA        -77.8542   23.5706  -75.4927 C.3       4 UNK         0.0263 
     53 CB        -78.0837   23.1350  -74.0368 C.3       4 UNK        -0.1981 
     54 N         -79.1419   23.7689  -76.1616 N.am      4 UNK        -0.4224 
     55 C         -79.2926   23.9763  -77.4780 C.2       3 UNK         0.4895 
     56 O         -78.3602   23.9342  -78.2822 O.2       3 UNK        -0.5091 
     57 CA        -80.6958   24.3507  -77.9858 C.3       3 UNK         0.0250 
     58 CB        -81.3552   23.1396  -78.6654 C.3       3 UNK        -0.1996 
     59 N         -81.6178   24.8951  -76.9797 N.am      3 UNK        -0.4254 
     60 C         -81.4178   25.9617  -76.1892 C.2       2 UNK         0.5004 
     61 O         -80.3524   26.5781  -76.1267 O.2       2 UNK        -0.5226 
     62 CA        -82.6158   26.4397  -75.3428 C.3       2 UNK         0.0269 
     63 CB        -83.8527   25.5123  -75.4137 C.3       2 UNK        -0.1926 
     64 N         -82.2793   26.7096  -73.9391 N.am      2 UNK        -0.4687 
     65 C         -81.7660   25.8486  -73.0472 C.2       1 UNK         0.5165 
     66 O         -81.3424   24.7250  -73.3337 O.2       1 UNK        -0.5079 
     67 H67       -83.9778   23.5694  -68.7858 H         1 UNK         0.0900 
     68 H68       -83.5223   22.4912  -70.1083 H         1 UNK         0.0900 
     69 H69       -82.2756   23.2200  -69.0940 H         1 UNK         0.0900 
     70 H70       -81.2153   24.8893  -70.1537 H         1 UNK         0.2959 
     71 H71       -82.6191   27.0107  -71.4810 H         1 UNK         0.1079 
     72 H72       -80.2213   27.8282  -71.9875 H         1 UNK         0.0837 
     73 H73       -80.7502   27.7794  -70.3433 H         1 UNK         0.0837 
     74 H74       -77.1418   25.5562  -71.9910 H         1 UNK         0.0685 
     75 H75       -78.5177   25.9432  -72.9976 H         1 UNK         0.0685 
     76 H76       -78.5463   28.0016  -74.0944 H         1 UNK         0.1434 
     77 H77       -75.8710   31.1556  -72.9615 H         1 UNK         0.1329 
     78 H78       -76.1699   27.6164  -70.5539 H         1 UNK         0.1335 
     79 H79       -74.8817   31.1302  -70.7683 H         1 UNK         0.0680 
     80 H80       -75.2858   29.8740  -69.6276 H         1 UNK         0.0680 
     81 H81       -72.5877   31.5411  -70.2365 H         1 UNK         0.1032 
     82 H82       -71.2276   30.4987  -70.5417 H         1 UNK         0.1032 
     83 H83       -73.0703   31.6895  -72.6736 H         1 UNK         0.0461 
     84 H84       -72.6832   33.8963  -72.0982 H         1 UNK         0.3453 
     85 H85       -71.0902   34.6002  -72.1833 H         1 UNK         0.3453 
     86 H86       -71.4648   29.4134  -72.9223 H         1 UNK         0.2984 
     87 H87       -71.8892   29.2134  -76.3738 H         1 UNK         0.0554 
     88 H88       -69.5746   30.1627  -76.4220 H         1 UNK         0.0847 
     89 H89       -69.5486   28.4128  -76.5530 H         1 UNK         0.0847 
     90 H90       -69.1348   29.1922  -75.0243 H         1 UNK         0.0847 
     91 H91       -70.7706   27.2757  -74.7029 H         1 UNK         0.3141 
     92 H92       -71.8762   25.8674  -73.2900 H         1 UNK         0.0743 
     93 H93       -74.9316   26.1420  -73.2103 H         1 UNK         0.0784 
     94 H94       -73.9874   24.9302  -72.3473 H         1 UNK         0.0784 
     95 H95       -73.8220   26.6300  -71.9405 H         1 UNK         0.0784 
     96 H96       -74.0062   24.8526  -75.0364 H         1 UNK         0.3213 
     97 H97       -71.6888   23.4385  -77.4051 H         1 UNK         0.0855 
     98 H98       -73.8138   22.3714  -75.4651 H         1 UNK         0.0814 
     99 H99       -72.1390   21.8404  -75.5477 H         1 UNK         0.0814 
    100 H100      -73.2155   21.5502  -76.9044 H         1 UNK         0.0814 
    101 H101      -74.5364   24.2833  -76.9914 H         1 UNK         0.3105 
    102 H102      -74.5702   26.1140  -79.9748 H         1 UNK         0.0547 
    103 H103      -74.9392   23.8778  -81.0133 H         1 UNK         0.0837 
    104 H104      -75.9263   23.3831  -79.6449 H         1 UNK         0.0837 
    105 H105      -76.4704   24.6811  -80.7058 H         1 UNK         0.0837 
    106 H106      -76.6629   25.2613  -78.2055 H         1 UNK         0.3020 
    107 H107      -76.0077   27.3964  -75.5159 H         1 UNK         0.1245 
    108 H108      -78.4493   28.2785  -76.2952 H         1 UNK         0.0781 
    109 H109      -77.7277   28.3198  -77.8590 H         1 UNK         0.0781 
    110 H110      -78.7386   30.3375  -75.0793 H         1 UNK         0.0836 
    111 H111      -77.5037   31.5157  -74.7326 H         1 UNK         0.0836 
    112 H112      -78.3865   26.0371  -76.1507 H         1 UNK         0.3022 
    113 H113      -77.3504   22.7463  -76.0021 H         1 UNK         0.0747 
    114 H114      -78.5003   22.1286  -73.9945 H         1 UNK         0.0793 
    115 H115      -77.1500   23.1193  -73.4724 H         1 UNK         0.0793 
    116 H116      -78.7762   23.7926  -73.5150 H         1 UNK         0.0793 
    117 H117      -79.9560   23.8544  -75.5678 H         1 UNK         0.3047 
    118 H118      -80.5554   25.1284  -78.7392 H         1 UNK         0.0822 
    119 H119      -82.2952   23.4141  -79.1446 H         1 UNK         0.0807 
    120 H120      -81.5607   22.3399  -77.9525 H         1 UNK         0.0807 
    121 H121      -80.7093   22.7259  -79.4415 H         1 UNK         0.0807 
    122 H122      -82.5245   24.4531  -76.9334 H         1 UNK         0.2946 
    123 H123      -82.9047   27.3994  -75.7747 H         1 UNK         0.1144 
    124 H124      -84.6755   25.9153  -74.8227 H         1 UNK         0.0793 
    125 H125      -83.6385   24.5128  -75.0323 H         1 UNK         0.0793 
    126 H126      -84.2234   25.4128  -76.4349 H         1 UNK         0.0793 
    127 H127      -82.5445   27.6280  -73.6109 H         1 UNK         0.2896 
@<TRIPOS>BOND
     1    1    2 1    
     2    1   67 1    
     3    1   68 1    
     4    1   69 1    
     5    2    3 2    
     6    2    4 am   BACKBONE|DICT|INTERRES
     7    4    5 1    
     8    4   70 1    
     9    5    6 1    
    10    5   65 1    
    11    5   71 1    
    12    6    7 1    
    13    6   72 1    
    14    6   73 1    
    15    7    8 1    
    16    8    9 1    
    17    8   74 1    
    18    8   75 1    
    19    9   10 ar   
    20    9   14 ar   
    21   10   11 ar   
    22   10   76 1    
    23   11   12 ar   
    24   11   48 1    
    25   12   13 ar   
    26   12   77 1    
    27   13   14 ar   
    28   13   15 1    
    29   14   78 1    
    30   15   16 1    
    31   15   79 1    
    32   15   80 1    
    33   16   17 1    
    34   17   18 1    
    35   17   81 1    
    36   17   82 1    
    37   18   19 1    
    38   18   22 1    
    39   18   83 1    
    40   19   20 am   BACKBONE|DICT|INTERRES
    41   19   21 2    
    42   20   84 1    
    43   20   85 1    
    44   22   23 am   BACKBONE|DICT|INTERRES
    45   22   86 1    
    46   23   24 2    
    47   23   25 1    
    48   25   26 1    
    49   25   27 1    
    50   25   87 1    
    51   26   88 1    
    52   26   89 1    
    53   26   90 1    
    54   27   28 am   BACKBONE|DICT|INTERRES
    55   27   91 1    
    56   28   29 2    
    57   28   30 1    
    58   30   31 1    
    59   30   32 1    
    60   30   92 1    
    61   31   93 1    
    62   31   94 1    
    63   31   95 1    
    64   32   33 am   BACKBONE|DICT|INTERRES
    65   32   96 1    
    66   33   34 2    
    67   33   35 1    
    68   35   36 1    
    69   35   37 1    
    70   35   97 1    
    71   36   98 1    
    72   36   99 1    
    73   36  100 1    
    74   37   38 am   BACKBONE|DICT|INTERRES
    75   37  101 1    
    76   38   39 2    
    77   38   40 1    
    78   40   41 1    
    79   40   42 1    
    80   40  102 1    
    81   41  103 1    
    82   41  104 1    
    83   41  105 1    
    84   42   43 am   BACKBONE|DICT|INTERRES
    85   42  106 1    
    86   43   44 2    
    87   43   45 1    
    88   45   46 1    
    89   45   49 1    
    90   45  107 1    
    91   46   47 1    
    92   46  108 1    
    93   46  109 1    
    94   47   48 1    
    95   48  110 1    
    96   48  111 1    
    97   49   50 am   BACKBONE|DICT|INTERRES
    98   49  112 1    
    99   50   51 2    
   100   50   52 1    
   101   52   53 1    
   102   52   54 1    
   103   52  113 1    
   104   53  114 1    
   105   53  115 1    
   106   53  116 1    
   107   54   55 am   BACKBONE|DICT|INTERRES
   108   54  117 1    
   109   55   56 2    
   110   55   57 1    
   111   57   58 1    
   112   57   59 1    
   113   57  118 1    
   114   58  119 1    
   115   58  120 1    
   116   58  121 1    
   117   59   60 am   BACKBONE|DICT|INTERRES
   118   59  122 1    
   119   60   61 2    
   120   60   62 1    
   121   62   63 1    
   122   62   64 1    
   123   62  123 1    
   124   63  124 1    
   125   63  125 1    
   126   63  126 1    
   127   64   65 am   BACKBONE|DICT|INTERRES
   128   64  127 1    
   129   65   66 2    
@<TRIPOS>SUBSTRUCTURE
     1 UNK         1 GROUP             0       ****    0 ROOT    
