@<TRIPOS>MOLECULE
3R135
127   129    1
SMALL
USER_CHARGES


@<TRIPOS>ATOM
      1 CA        -83.8876   24.5809  -73.6712 C.3       0 UNK        -0.1998 
      2 C         -82.9801   25.6237  -74.3045 C.2       0 UNK         0.4909 
      3 O         -82.5815   25.4760  -75.4610 O.2       0 UNK        -0.5240 
      4 N         -82.6559   26.6821  -73.5508 N.am      1 UNK        -0.4739 
      5 CA        -81.7756   27.7771  -73.9721 C.3       1 UNK         0.0864 
      6 C6        -81.8381   28.9903  -73.0072 C.3       11 UNK        -0.0881 
      7 S7        -81.5603   28.5849  -71.2469 S.3       11 UNK        -0.2682 
      8 C8        -80.2204   29.7347  -70.7932 C.3       11 UNK         0.0289 
      9 C9        -78.8502   29.2513  -71.2497 C.ar      11 UNK        -0.0687 
     10 C10       -78.3069   28.0850  -70.7021 C.ar      11 UNK        -0.0823 
     11 C11       -77.0332   27.6495  -71.0760 C.ar      11 UNK        -0.0830 
     12 C12       -76.3028   28.3863  -72.0100 C.ar      11 UNK        -0.1021 
     13 C13       -76.8196   29.5702  -72.5453 C.ar      11 UNK        -0.0753 
     14 C14       -78.1007   29.9914  -72.1713 C.ar      11 UNK        -0.0933 
     15 C15       -75.9912   30.3946  -73.5221 C.3       11 UNK         0.0166 
     16 S16       -75.0814   31.7443  -72.6971 S.3       11 UNK        -0.2615 
     17 C17       -73.8206   30.8459  -71.7231 C.3       11 UNK        -0.0865 
     18 CA        -72.3572   31.1380  -72.1480 C.3       10 UNK         0.0862 
     19 C         -71.3890   30.3192  -71.2469 C.2       10 UNK         0.5551 
     20 N         -70.8146   30.9397  -70.2257 N.am      10 UNK        -0.7319 
     21 O         -71.2016   29.1195  -71.4388 O.2       10 UNK        -0.5018 
     22 N         -72.1682   30.9168  -73.5916 N.am      10 UNK        -0.4509 
     23 C         -71.0142   30.9434  -74.2745 C.2       10 UNK         0.4899 
     24 O         -69.9175   31.1848  -73.7701 O.2       10 UNK        -0.4839 
     25 CA        -71.0902   30.7156  -75.7961 C.3       9 UNK         0.0222 
     26 CB        -70.0802   29.6620  -76.2914 C.3       9 UNK        -0.1966 
     27 N         -72.4616   30.5473  -76.3083 N.am      9 UNK        -0.4218 
     28 C         -73.3094   29.5091  -76.3996 C.2       9 UNK         0.5020 
     29 O         -74.4888   29.7267  -76.6728 O.2       9 UNK        -0.5274 
     30 CA        -72.8721   28.0422  -76.1606 C.3       8 UNK         0.0270 
     31 CB        -72.8553   27.6819  -74.6653 C.3       8 UNK        -0.1976 
     32 N         -73.7763   27.1083  -76.8413 N.am      8 UNK        -0.4313 
     33 C         -73.8709   26.9675  -78.1709 C.2       8 UNK         0.5041 
     34 O         -73.1153   27.5200  -78.9742 O.2       8 UNK        -0.5577 
     35 CA        -75.0116   26.0643  -78.6746 C.3       7 UNK         0.0284 
     36 CB        -74.9740   25.8162  -80.1983 C.3       7 UNK        -0.1958 
     37 N         -75.1049   24.8027  -77.9305 N.am      7 UNK        -0.4454 
     38 C         -74.2032   23.8110  -77.8921 C.2       7 UNK         0.5089 
     39 O         -73.1293   23.8336  -78.4960 O.2       7 UNK        -0.5125 
     40 CA        -74.5858   22.5672  -77.0638 C.3       6 UNK         0.0408 
     41 CB        -73.3693   21.6856  -76.7082 C.3       6 UNK        -0.1791 
     42 N         -75.3843   22.8616  -75.8673 N.am      6 UNK        -0.4762 
     43 C         -75.0137   23.5733  -74.7893 C.2       6 UNK         0.5007 
     44 O         -73.9278   24.1463  -74.6961 O.2       6 UNK        -0.5032 
     45 CA        -76.0217   23.6449  -73.6206 C.3       5 UNK         0.0783 
     46 C46       -75.8856   24.9450  -72.7888 C.3       11 UNK        -0.0857 
     47 S47       -76.9405   24.8901  -71.3007 S.3       11 UNK        -0.2512 
     48 C48       -76.4321   26.4059  -70.4394 C.3       11 UNK         0.0225 
     49 N         -77.3887   23.4775  -74.1173 N.am      5 UNK        -0.4615 
     50 C         -78.1713   22.4087  -73.9328 C.2       4 UNK         0.5053 
     51 O         -77.8203   21.4011  -73.3188 O.2       4 UNK        -0.5105 
     52 CA        -79.5821   22.4589  -74.5505 C.3       4 UNK         0.0263 
     53 CB        -80.6360   22.7125  -73.4616 C.3       4 UNK        -0.1981 
     54 N         -79.7221   23.4711  -75.6028 N.am      4 UNK        -0.4224 
     55 C         -79.1401   23.3956  -76.8087 C.2       3 UNK         0.4895 
     56 O         -78.4746   22.4321  -77.1894 O.2       3 UNK        -0.5091 
     57 CA        -79.2669   24.6285  -77.7187 C.3       3 UNK         0.0250 
     58 CB        -80.5630   24.5645  -78.5414 C.3       3 UNK        -0.1996 
     59 N         -79.2104   25.8990  -76.9881 N.am      3 UNK        -0.4254 
     60 C         -78.1588   26.3283  -76.2741 C.2       2 UNK         0.5004 
     61 O         -77.1184   25.6868  -76.1393 O.2       2 UNK        -0.5226 
     62 CA        -78.2849   27.6951  -75.5851 C.3       2 UNK         0.0269 
     63 CB        -77.7977   28.7980  -76.5351 C.3       2 UNK        -0.1926 
     64 N         -79.6455   28.0072  -75.1440 N.am      2 UNK        -0.4687 
     65 C         -80.3302   27.3036  -74.2317 C.2       1 UNK         0.5165 
     66 O         -79.8752   26.3205  -73.6418 O.2       1 UNK        -0.5079 
     67 H67       -83.8441   23.6442  -74.2261 H         1 UNK         0.0900 
     68 H68       -83.5922   24.3786  -72.6418 H         1 UNK         0.0900 
     69 H69       -84.9205   24.9279  -73.6747 H         1 UNK         0.0900 
     70 H70       -82.9731   26.7329  -72.5929 H         1 UNK         0.2959 
     71 H71       -82.1637   28.1174  -74.9352 H         1 UNK         0.1079 
     72 H72       -82.8263   29.4476  -73.0771 H         1 UNK         0.0837 
     73 H73       -81.1416   29.7687  -73.3243 H         1 UNK         0.0837 
     74 H74       -80.4412   30.7281  -71.1867 H         1 UNK         0.0685 
     75 H75       -80.2071   29.8372  -69.7072 H         1 UNK         0.0685 
     76 H76       -78.8773   27.5180  -69.9790 H         1 UNK         0.1434 
     77 H77       -75.3215   28.0420  -72.3025 H         1 UNK         0.1329 
     78 H78       -78.5029   30.9067  -72.5834 H         1 UNK         0.1335 
     79 H79       -75.2932   29.7568  -74.0630 H         1 UNK         0.0680 
     80 H80       -76.6457   30.8337  -74.2754 H         1 UNK         0.0680 
     81 H81       -74.0061   29.7749  -71.7775 H         1 UNK         0.1032 
     82 H82       -73.9676   31.1156  -70.6754 H         1 UNK         0.1032 
     83 H83       -72.1632   32.1989  -71.9787 H         1 UNK         0.0461 
     84 H84       -70.1983   30.4195  -69.6209 H         1 UNK         0.3453 
     85 H85       -70.9724   31.9208  -70.0548 H         1 UNK         0.3453 
     86 H86       -73.0172   30.7540  -74.1104 H         1 UNK         0.2984 
     87 H87       -70.7708   31.6627  -76.2337 H         1 UNK         0.0554 
     88 H88       -69.0639   30.0502  -76.2126 H         1 UNK         0.0847 
     89 H89       -70.2394   29.4017  -77.3380 H         1 UNK         0.0847 
     90 H90       -70.1027   28.7530  -75.6904 H         1 UNK         0.0847 
     91 H91       -72.8802   31.4349  -76.5509 H         1 UNK         0.3141 
     92 H92       -71.8903   27.8681  -76.5927 H         1 UNK         0.0743 
     93 H93       -72.0908   28.2384  -74.1262 H         1 UNK         0.0784 
     94 H94       -72.6306   26.6253  -74.5170 H         1 UNK         0.0784 
     95 H95       -73.8136   27.8845  -74.1885 H         1 UNK         0.0784 
     96 H96       -74.4402   26.6131  -76.2629 H         1 UNK         0.3213 
     97 H97       -75.9333   26.6084  -78.4649 H         1 UNK         0.0855 
     98 H98       -74.0513   25.3257  -80.5093 H         1 UNK         0.0814 
     99 H99       -75.0392   26.7569  -80.7464 H         1 UNK         0.0814 
    100 H100      -75.8103   25.1960  -80.5202 H         1 UNK         0.0814 
    101 H101      -75.9132   24.7309  -77.3177 H         1 UNK         0.3105 
    102 H102      -75.2354   21.9749  -77.7100 H         1 UNK         0.0547 
    103 H103      -73.6690   20.8020  -76.1450 H         1 UNK         0.0837 
    104 H104      -72.6344   22.2300  -76.1145 H         1 UNK         0.0837 
    105 H105      -72.8624   21.3358  -77.6084 H         1 UNK         0.0837 
    106 H106      -76.3186   22.4725  -75.8655 H         1 UNK         0.3020 
    107 H107      -75.7616   22.8088  -72.9677 H         1 UNK         0.1245 
    108 H108      -76.1579   25.8144  -73.3897 H         1 UNK         0.0781 
    109 H109      -74.8542   25.0958  -72.4646 H         1 UNK         0.0781 
    110 H110      -75.3432   26.4710  -70.4153 H         1 UNK         0.0836 
    111 H111      -76.7515   26.3390  -69.3983 H         1 UNK         0.0836 
    112 H112      -77.7407   24.2529  -74.6648 H         1 UNK         0.3022 
    113 H113      -79.7771   21.4795  -74.9925 H         1 UNK         0.0747 
    114 H114      -81.6441   22.6366  -73.8665 H         1 UNK         0.0793 
    115 H115      -80.5557   21.9780  -72.6590 H         1 UNK         0.0793 
    116 H116      -80.5227   23.7002  -73.0122 H         1 UNK         0.0793 
    117 H117      -80.2407   24.3077  -75.3664 H         1 UNK         0.3047 
    118 H118      -78.4224   24.6104  -78.4113 H         1 UNK         0.0822 
    119 H119      -80.6192   25.3838  -79.2584 H         1 UNK         0.0807 
    120 H120      -81.4483   24.6126  -77.9057 H         1 UNK         0.0807 
    121 H121      -80.6193   23.6347  -79.1093 H         1 UNK         0.0807 
    122 H122      -80.0330   26.4835  -77.0271 H         1 UNK         0.2946 
    123 H123      -77.6406   27.6769  -74.7031 H         1 UNK         0.1144 
    124 H124      -77.7765   29.7701  -76.0445 H         1 UNK         0.0793 
    125 H125      -78.4316   28.8828  -77.4186 H         1 UNK         0.0793 
    126 H126      -76.7866   28.5886  -76.8838 H         1 UNK         0.0793 
    127 H127      -80.0858   28.8048  -75.5800 H         1 UNK         0.2896 
@<TRIPOS>BOND
     1    1    2 1    
     2    1   67 1    
     3    1   68 1    
     4    1   69 1    
     5    2    3 2    
     6    2    4 am   BACKBONE|DICT|INTERRES
     7    4    5 1    
     8    4   70 1    
     9    5    6 1    
    10    5   65 1    
    11    5   71 1    
    12    6    7 1    
    13    6   72 1    
    14    6   73 1    
    15    7    8 1    
    16    8    9 1    
    17    8   74 1    
    18    8   75 1    
    19    9   10 ar   
    20    9   14 ar   
    21   10   11 ar   
    22   10   76 1    
    23   11   12 ar   
    24   11   48 1    
    25   12   13 ar   
    26   12   77 1    
    27   13   14 ar   
    28   13   15 1    
    29   14   78 1    
    30   15   16 1    
    31   15   79 1    
    32   15   80 1    
    33   16   17 1    
    34   17   18 1    
    35   17   81 1    
    36   17   82 1    
    37   18   19 1    
    38   18   22 1    
    39   18   83 1    
    40   19   20 am   BACKBONE|DICT|INTERRES
    41   19   21 2    
    42   20   84 1    
    43   20   85 1    
    44   22   23 am   BACKBONE|DICT|INTERRES
    45   22   86 1    
    46   23   24 2    
    47   23   25 1    
    48   25   26 1    
    49   25   27 1    
    50   25   87 1    
    51   26   88 1    
    52   26   89 1    
    53   26   90 1    
    54   27   28 am   BACKBONE|DICT|INTERRES
    55   27   91 1    
    56   28   29 2    
    57   28   30 1    
    58   30   31 1    
    59   30   32 1    
    60   30   92 1    
    61   31   93 1    
    62   31   94 1    
    63   31   95 1    
    64   32   33 am   BACKBONE|DICT|INTERRES
    65   32   96 1    
    66   33   34 2    
    67   33   35 1    
    68   35   36 1    
    69   35   37 1    
    70   35   97 1    
    71   36   98 1    
    72   36   99 1    
    73   36  100 1    
    74   37   38 am   BACKBONE|DICT|INTERRES
    75   37  101 1    
    76   38   39 2    
    77   38   40 1    
    78   40   41 1    
    79   40   42 1    
    80   40  102 1    
    81   41  103 1    
    82   41  104 1    
    83   41  105 1    
    84   42   43 am   BACKBONE|DICT|INTERRES
    85   42  106 1    
    86   43   44 2    
    87   43   45 1    
    88   45   46 1    
    89   45   49 1    
    90   45  107 1    
    91   46   47 1    
    92   46  108 1    
    93   46  109 1    
    94   47   48 1    
    95   48  110 1    
    96   48  111 1    
    97   49   50 am   BACKBONE|DICT|INTERRES
    98   49  112 1    
    99   50   51 2    
   100   50   52 1    
   101   52   53 1    
   102   52   54 1    
   103   52  113 1    
   104   53  114 1    
   105   53  115 1    
   106   53  116 1    
   107   54   55 am   BACKBONE|DICT|INTERRES
   108   54  117 1    
   109   55   56 2    
   110   55   57 1    
   111   57   58 1    
   112   57   59 1    
   113   57  118 1    
   114   58  119 1    
   115   58  120 1    
   116   58  121 1    
   117   59   60 am   BACKBONE|DICT|INTERRES
   118   59  122 1    
   119   60   61 2    
   120   60   62 1    
   121   62   63 1    
   122   62   64 1    
   123   62  123 1    
   124   63  124 1    
   125   63  125 1    
   126   63  126 1    
   127   64   65 am   BACKBONE|DICT|INTERRES
   128   64  127 1    
   129   65   66 2    
@<TRIPOS>SUBSTRUCTURE
     1 UNK         1 GROUP             0       ****    0 ROOT    
