@<TRIPOS>MOLECULE
3R135
127   129    1
SMALL
USER_CHARGES


@<TRIPOS>ATOM
      1 CA        -79.7685   32.7421  -75.4296 C.3       0 UNK        -0.1998 
      2 C         -79.6204   31.3196  -74.9132 C.2       0 UNK         0.4909 
      3 O         -78.7879   30.5703  -75.4238 O.2       0 UNK        -0.5240 
      4 N         -80.4071   30.9487  -73.8954 N.am      1 UNK        -0.4739 
      5 CA        -80.4388   29.6160  -73.2791 C.3       1 UNK         0.0864 
      6 C6        -81.3772   29.5799  -72.0482 C.3       11 UNK        -0.0881 
      7 S7        -80.8757   30.7879  -70.7732 S.3       11 UNK        -0.2682 
      8 C8        -80.3725   29.7132  -69.3930 C.3       11 UNK         0.0289 
      9 C9        -79.1647   28.8509  -69.7331 C.ar      11 UNK        -0.0687 
     10 C10       -79.3051   27.4666  -69.8671 C.ar      11 UNK        -0.0823 
     11 C11       -78.1941   26.6611  -70.1338 C.ar      11 UNK        -0.0830 
     12 C12       -76.9359   27.2547  -70.2801 C.ar      11 UNK        -0.1021 
     13 C13       -76.7849   28.6397  -70.1676 C.ar      11 UNK        -0.0753 
     14 C14       -77.9018   29.4320  -69.8830 C.ar      11 UNK        -0.0933 
     15 C15       -75.4114   29.2748  -70.3412 C.3       11 UNK         0.0166 
     16 S16       -74.9878   29.5145  -72.0970 S.3       11 UNK        -0.2615 
     17 C17       -76.2404   30.7480  -72.5835 C.3       11 UNK        -0.0865 
     18 CA        -75.9289   31.5244  -73.8905 C.3       10 UNK         0.0862 
     19 C         -74.8049   32.5963  -73.7301 C.2       10 UNK         0.5551 
     20 N         -73.8297   32.6996  -74.6184 N.am      10 UNK        -0.7319 
     21 O         -74.8537   33.3945  -72.7969 O.2       10 UNK        -0.5018 
     22 N         -75.9896   30.6594  -75.0887 N.am      10 UNK        -0.4509 
     23 C         -75.0316   30.0079  -75.7616 C.2       10 UNK         0.4899 
     24 O         -73.8272   30.0823  -75.5117 O.2       10 UNK        -0.4839 
     25 CA        -75.5200   29.1544  -76.9528 C.3       9 UNK         0.0222 
     26 CB        -76.3138   29.9967  -77.9698 C.3       9 UNK        -0.1966 
     27 N         -74.4092   28.5166  -77.6641 N.am      9 UNK        -0.4218 
     28 C         -73.7446   27.4320  -77.2504 C.2       9 UNK         0.5020 
     29 O         -74.0414   26.7750  -76.2485 O.2       9 UNK        -0.5274 
     30 CA        -72.5170   27.0446  -78.0921 C.3       8 UNK         0.0270 
     31 CB        -71.2840   27.8474  -77.6449 C.3       8 UNK        -0.1976 
     32 N         -72.2340   25.6236  -77.9294 N.am      8 UNK        -0.4313 
     33 C         -72.8041   24.6342  -78.6222 C.2       8 UNK         0.5041 
     34 O         -73.4577   24.8100  -79.6516 O.2       8 UNK        -0.5577 
     35 CA        -72.6430   23.2081  -78.0588 C.3       7 UNK         0.0284 
     36 CB        -71.3074   22.5732  -78.4952 C.3       7 UNK        -0.1958 
     37 N         -72.8549   23.1178  -76.6015 N.am      7 UNK        -0.4454 
     38 C         -72.0957   23.6124  -75.6128 C.2       7 UNK         0.5089 
     39 O         -71.0274   24.1943  -75.8107 O.2       7 UNK        -0.5125 
     40 CA        -72.6197   23.4754  -74.1734 C.3       6 UNK         0.0408 
     41 CB        -72.0749   24.5876  -73.2498 C.3       6 UNK        -0.1791 
     42 N         -74.0858   23.4431  -74.0993 N.am      6 UNK        -0.4762 
     43 C         -74.7593   22.8992  -73.0740 C.2       6 UNK         0.5007 
     44 O         -74.2169   22.2733  -72.1615 O.2       6 UNK        -0.5032 
     45 CA        -76.2864   23.1017  -73.0250 C.3       5 UNK         0.0783 
     46 C46       -76.6278   24.4560  -72.3607 C.3       11 UNK        -0.0857 
     47 S47       -78.4055   24.5953  -71.9709 S.3       11 UNK        -0.2512 
     48 C48       -78.3589   25.1508  -70.2382 C.3       11 UNK         0.0225 
     49 N         -76.9222   22.9597  -74.3356 N.am      5 UNK        -0.4615 
     50 C         -77.0277   21.8068  -75.0112 C.2       4 UNK         0.5053 
     51 O         -76.5840   20.7348  -74.5991 O.2       4 UNK        -0.5105 
     52 CA        -77.7627   21.8334  -76.3668 C.3       4 UNK         0.0263 
     53 CB        -79.1606   21.2079  -76.2281 C.3       4 UNK        -0.1981 
     54 N         -77.9001   23.1696  -76.9522 N.am      4 UNK        -0.4224 
     55 C         -76.8819   23.9441  -77.3525 C.2       3 UNK         0.4895 
     56 O         -75.7077   23.5865  -77.3070 O.2       3 UNK        -0.5091 
     57 CA        -77.2273   25.3630  -77.8404 C.3       3 UNK         0.0250 
     58 CB        -77.2598   25.4191  -79.3752 C.3       3 UNK        -0.1996 
     59 N         -78.4977   25.8649  -77.3017 N.am      3 UNK        -0.4254 
     60 C         -78.6917   26.1656  -76.0105 C.2       2 UNK         0.5004 
     61 O         -77.8134   26.0830  -75.1499 O.2       2 UNK        -0.5226 
     62 CA        -80.1091   26.5704  -75.5992 C.3       2 UNK         0.0269 
     63 CB        -80.9179   25.3474  -75.1311 C.3       2 UNK        -0.1926 
     64 N         -80.0020   27.5413  -74.5165 N.am      2 UNK        -0.4687 
     65 C         -80.8509   28.5538  -74.3183 C.2       1 UNK         0.5165 
     66 O         -81.9120   28.6886  -74.9337 O.2       1 UNK        -0.5079 
     67 H67       -80.5165   33.3034  -74.8700 H         1 UNK         0.0900 
     68 H68       -80.0665   32.7297  -76.4776 H         1 UNK         0.0900 
     69 H69       -78.8190   33.2708  -75.3518 H         1 UNK         0.0900 
     70 H70       -81.0688   31.6098  -73.5147 H         1 UNK         0.2959 
     71 H71       -79.4269   29.3875  -72.9385 H         1 UNK         0.1079 
     72 H72       -81.4028   28.5787  -71.6145 H         1 UNK         0.0837 
     73 H73       -82.4044   29.8052  -72.3419 H         1 UNK         0.0837 
     74 H74       -80.1316   30.3387  -68.5323 H         1 UNK         0.0685 
     75 H75       -81.2213   29.0971  -69.0922 H         1 UNK         0.0685 
     76 H76       -80.2794   27.0122  -69.7480 H         1 UNK         0.1434 
     77 H77       -76.0689   26.6439  -70.4858 H         1 UNK         0.1329 
     78 H78       -77.7925   30.5029  -69.7805 H         1 UNK         0.1335 
     79 H79       -75.3605   30.2321  -69.8199 H         1 UNK         0.0680 
     80 H80       -74.6539   28.6385  -69.8811 H         1 UNK         0.0680 
     81 H81       -76.3909   31.4476  -71.7594 H         1 UNK         0.1032 
     82 H82       -77.1910   30.2259  -72.6951 H         1 UNK         0.1032 
     83 H83       -76.8018   32.1597  -74.0427 H         1 UNK         0.0461 
     84 H84       -73.7144   31.9500  -75.2912 H         1 UNK         0.3453 
     85 H85       -73.1225   33.4088  -74.5110 H         1 UNK         0.3453 
     86 H86       -76.9450   30.5236  -75.4137 H         1 UNK         0.2984 
     87 H87       -76.1768   28.3765  -76.5570 H         1 UNK         0.0554 
     88 H88       -76.6302   29.3934  -78.8210 H         1 UNK         0.0847 
     89 H89       -75.7239   30.8313  -78.3511 H         1 UNK         0.0847 
     90 H90       -77.2194   30.4139  -77.5303 H         1 UNK         0.0847 
     91 H91       -74.0566   29.0128  -78.4696 H         1 UNK         0.3141 
     92 H92       -72.7194   27.2583  -79.1440 H         1 UNK         0.0743 
     93 H93       -71.0492   27.6712  -76.5939 H         1 UNK         0.0784 
     94 H94       -70.4047   27.5849  -78.2335 H         1 UNK         0.0784 
     95 H95       -71.4476   28.9191  -77.7656 H         1 UNK         0.0784 
     96 H96       -71.7360   25.3538  -77.0846 H         1 UNK         0.3213 
     97 H97       -73.4419   22.6118  -78.5028 H         1 UNK         0.0855 
     98 H98       -70.4455   23.1336  -78.1328 H         1 UNK         0.0814 
     99 H99       -71.2341   22.5410  -79.5829 H         1 UNK         0.0814 
    100 H100      -71.2187   21.5487  -78.1338 H         1 UNK         0.0814 
    101 H101      -73.7504   22.7231  -76.3442 H         1 UNK         0.3105 
    102 H102      -72.2314   22.5188  -73.8176 H         1 UNK         0.0547 
    103 H103      -70.9843   24.6007  -73.2439 H         1 UNK         0.0837 
    104 H104      -72.4129   25.5730  -73.5737 H         1 UNK         0.0837 
    105 H105      -72.3926   24.4476  -72.2168 H         1 UNK         0.0837 
    106 H106      -74.5920   23.9532  -74.8134 H         1 UNK         0.3020 
    107 H107      -76.6799   22.3072  -72.3860 H         1 UNK         0.1245 
    108 H108      -76.3428   25.2918  -73.0028 H         1 UNK         0.0781 
    109 H109      -76.0522   24.5707  -71.4412 H         1 UNK         0.0781 
    110 H110      -77.5620   24.6431  -69.6932 H         1 UNK         0.0836 
    111 H111      -79.2878   24.8425  -69.7559 H         1 UNK         0.0836 
    112 H112      -77.3171   23.8039  -74.7295 H         1 UNK         0.3022 
    113 H113      -77.1798   21.2247  -77.0612 H         1 UNK         0.0747 
    114 H114      -79.6641   21.1401  -77.1927 H         1 UNK         0.0793 
    115 H115      -79.0979   20.1952  -75.8270 H         1 UNK         0.0793 
    116 H116      -79.7960   21.7856  -75.5552 H         1 UNK         0.0793 
    117 H117      -78.8361   23.5382  -77.0270 H         1 UNK         0.3047 
    118 H118      -76.4298   26.0227  -77.4936 H         1 UNK         0.0822 
    119 H119      -77.4163   26.4375  -79.7315 H         1 UNK         0.0807 
    120 H120      -78.0491   24.7900  -79.7883 H         1 UNK         0.0807 
    121 H121      -76.3135   25.0740  -79.7951 H         1 UNK         0.0807 
    122 H122      -79.2645   25.9552  -77.9536 H         1 UNK         0.2946 
    123 H123      -80.6035   27.0312  -76.4581 H         1 UNK         0.1144 
    124 H124      -81.9255   25.6317  -74.8274 H         1 UNK         0.0793 
    125 H125      -80.4424   24.8507  -74.2845 H         1 UNK         0.0793 
    126 H126      -81.0168   24.6116  -75.9298 H         1 UNK         0.0793 
    127 H127      -79.1276   27.4940  -74.0068 H         1 UNK         0.2896 
@<TRIPOS>BOND
     1    1    2 1    
     2    1   67 1    
     3    1   68 1    
     4    1   69 1    
     5    2    3 2    
     6    2    4 am   BACKBONE|DICT|INTERRES
     7    4    5 1    
     8    4   70 1    
     9    5    6 1    
    10    5   65 1    
    11    5   71 1    
    12    6    7 1    
    13    6   72 1    
    14    6   73 1    
    15    7    8 1    
    16    8    9 1    
    17    8   74 1    
    18    8   75 1    
    19    9   10 ar   
    20    9   14 ar   
    21   10   11 ar   
    22   10   76 1    
    23   11   12 ar   
    24   11   48 1    
    25   12   13 ar   
    26   12   77 1    
    27   13   14 ar   
    28   13   15 1    
    29   14   78 1    
    30   15   16 1    
    31   15   79 1    
    32   15   80 1    
    33   16   17 1    
    34   17   18 1    
    35   17   81 1    
    36   17   82 1    
    37   18   19 1    
    38   18   22 1    
    39   18   83 1    
    40   19   20 am   BACKBONE|DICT|INTERRES
    41   19   21 2    
    42   20   84 1    
    43   20   85 1    
    44   22   23 am   BACKBONE|DICT|INTERRES
    45   22   86 1    
    46   23   24 2    
    47   23   25 1    
    48   25   26 1    
    49   25   27 1    
    50   25   87 1    
    51   26   88 1    
    52   26   89 1    
    53   26   90 1    
    54   27   28 am   BACKBONE|DICT|INTERRES
    55   27   91 1    
    56   28   29 2    
    57   28   30 1    
    58   30   31 1    
    59   30   32 1    
    60   30   92 1    
    61   31   93 1    
    62   31   94 1    
    63   31   95 1    
    64   32   33 am   BACKBONE|DICT|INTERRES
    65   32   96 1    
    66   33   34 2    
    67   33   35 1    
    68   35   36 1    
    69   35   37 1    
    70   35   97 1    
    71   36   98 1    
    72   36   99 1    
    73   36  100 1    
    74   37   38 am   BACKBONE|DICT|INTERRES
    75   37  101 1    
    76   38   39 2    
    77   38   40 1    
    78   40   41 1    
    79   40   42 1    
    80   40  102 1    
    81   41  103 1    
    82   41  104 1    
    83   41  105 1    
    84   42   43 am   BACKBONE|DICT|INTERRES
    85   42  106 1    
    86   43   44 2    
    87   43   45 1    
    88   45   46 1    
    89   45   49 1    
    90   45  107 1    
    91   46   47 1    
    92   46  108 1    
    93   46  109 1    
    94   47   48 1    
    95   48  110 1    
    96   48  111 1    
    97   49   50 am   BACKBONE|DICT|INTERRES
    98   49  112 1    
    99   50   51 2    
   100   50   52 1    
   101   52   53 1    
   102   52   54 1    
   103   52  113 1    
   104   53  114 1    
   105   53  115 1    
   106   53  116 1    
   107   54   55 am   BACKBONE|DICT|INTERRES
   108   54  117 1    
   109   55   56 2    
   110   55   57 1    
   111   57   58 1    
   112   57   59 1    
   113   57  118 1    
   114   58  119 1    
   115   58  120 1    
   116   58  121 1    
   117   59   60 am   BACKBONE|DICT|INTERRES
   118   59  122 1    
   119   60   61 2    
   120   60   62 1    
   121   62   63 1    
   122   62   64 1    
   123   62  123 1    
   124   63  124 1    
   125   63  125 1    
   126   63  126 1    
   127   64   65 am   BACKBONE|DICT|INTERRES
   128   64  127 1    
   129   65   66 2    
@<TRIPOS>SUBSTRUCTURE
     1 UNK         1 GROUP             0       ****    0 ROOT    
