@<TRIPOS>MOLECULE
3R135
127   129    1
SMALL
USER_CHARGES


@<TRIPOS>ATOM
      1 CA        -80.1496   21.7390  -71.2458 C.3       0 UNK        -0.1998 
      2 C         -79.8979   23.1853  -71.6429 C.2       0 UNK         0.4909 
      3 O         -78.8931   23.4718  -72.2929 O.2       0 UNK        -0.5240 
      4 N         -80.8114   24.0937  -71.2711 N.am      1 UNK        -0.4739 
      5 CA        -80.7527   25.5395  -71.5317 C.3       1 UNK         0.0864 
      6 C6        -79.6359   26.2379  -70.7078 C.3       11 UNK        -0.0881 
      7 S7        -80.0765   27.9474  -70.2581 S.3       11 UNK        -0.2682 
      8 C8        -78.4505   28.7756  -70.3036 C.3       11 UNK         0.0289 
      9 C9        -78.0178   29.2430  -71.6919 C.ar      11 UNK        -0.0687 
     10 C10       -78.9225   29.8688  -72.5583 C.ar      11 UNK        -0.0823 
     11 C11       -78.5029   30.3724  -73.7935 C.ar      11 UNK        -0.0830 
     12 C12       -77.1517   30.2816  -74.1403 C.ar      11 UNK        -0.1021 
     13 C13       -76.2434   29.6215  -73.3092 C.ar      11 UNK        -0.0753 
     14 C14       -76.6819   29.1065  -72.0852 C.ar      11 UNK        -0.0933 
     15 C15       -74.7980   29.4524  -73.7564 C.3       11 UNK         0.0166 
     16 S16       -73.7968   30.9141  -73.3511 S.3       11 UNK        -0.2615 
     17 C17       -73.4287   30.6172  -71.5875 C.3       11 UNK        -0.0865 
     18 CA        -71.9024   30.5761  -71.2925 C.3       10 UNK         0.0862 
     19 C         -71.5923   30.4869  -69.7657 C.2       10 UNK         0.5551 
     20 N         -70.5062   29.8472  -69.3489 N.am      10 UNK        -0.7319 
     21 O         -72.3268   31.0322  -68.9452 O.2       10 UNK        -0.5018 
     22 N         -71.1638   29.6117  -72.1324 N.am      10 UNK        -0.4509 
     23 C         -71.3033   28.2792  -72.1333 C.2       10 UNK         0.4899 
     24 O         -72.1249   27.6641  -71.4523 O.2       10 UNK        -0.4839 
     25 CA        -70.3308   27.5259  -73.0558 C.3       9 UNK         0.0222 
     26 CB        -70.0820   26.0663  -72.6150 C.3       9 UNK        -0.1966 
     27 N         -70.7323   27.6228  -74.4651 N.am      9 UNK        -0.4218 
     28 C         -71.7550   27.0127  -75.0836 C.2       9 UNK         0.5020 
     29 O         -72.5249   26.2185  -74.5378 O.2       9 UNK        -0.5274 
     30 CA        -71.9225   27.3104  -76.5860 C.3       8 UNK         0.0270 
     31 CB        -70.5750   27.4860  -77.3249 C.3       8 UNK        -0.1976 
     32 N         -72.6918   26.2217  -77.1833 N.am      8 UNK        -0.4313 
     33 C         -73.3343   26.2373  -78.3570 C.2       8 UNK         0.5041 
     34 O         -73.3266   27.2030  -79.1231 O.2       8 UNK        -0.5577 
     35 CA        -74.0837   24.9532  -78.7687 C.3       7 UNK         0.0284 
     36 CB        -73.8256   23.7479  -77.8399 C.3       7 UNK        -0.1958 
     37 N         -75.5239   25.1972  -78.8345 N.am      7 UNK        -0.4454 
     38 C         -76.1990   25.6179  -79.9121 C.2       7 UNK         0.5089 
     39 O         -75.6904   25.7984  -81.0195 O.2       7 UNK        -0.5125 
     40 CA        -77.7091   25.8673  -79.7315 C.3       6 UNK         0.0408 
     41 CB        -78.5032   24.5699  -79.9506 C.3       6 UNK        -0.1791 
     42 N         -78.0414   26.4270  -78.4190 N.am      6 UNK        -0.4762 
     43 C         -77.7387   27.6737  -78.0289 C.2       6 UNK         0.5007 
     44 O         -77.2360   28.5150  -78.7752 O.2       6 UNK        -0.5032 
     45 CA        -78.0046   28.0350  -76.5524 C.3       5 UNK         0.0783 
     46 C46       -79.4147   28.6424  -76.3236 C.3       11 UNK        -0.0857 
     47 S47       -79.3881   30.4620  -76.4754 S.3       11 UNK        -0.2512 
     48 C48       -79.5187   31.0169  -74.7355 C.3       11 UNK         0.0225 
     49 N         -77.7164   26.9277  -75.6362 N.am      5 UNK        -0.4615 
     50 C         -76.4855   26.4440  -75.4179 C.2       4 UNK         0.5053 
     51 O         -75.4740   26.9109  -75.9335 O.2       4 UNK        -0.5105 
     52 CA        -76.3582   25.2117  -74.5079 C.3       4 UNK         0.0263 
     53 CB        -76.2549   25.6388  -73.0380 C.3       4 UNK        -0.1981 
     54 N         -77.4679   24.2711  -74.6848 N.am      4 UNK        -0.4224 
     55 C         -77.7024   23.5998  -75.8225 C.2       3 UNK         0.4895 
     56 O         -76.9648   23.6443  -76.8057 O.2       3 UNK        -0.5091 
     57 CA        -79.0084   22.7959  -75.9072 C.3       3 UNK         0.0250 
     58 CB        -78.8832   21.4472  -75.1808 C.3       3 UNK        -0.1996 
     59 N         -80.1504   23.5523  -75.3888 N.am      3 UNK        -0.4254 
     60 C         -80.6513   24.6519  -75.9720 C.2       2 UNK         0.5004 
     61 O         -80.2344   25.1125  -77.0337 O.2       2 UNK        -0.5226 
     62 CA        -81.7876   25.3824  -75.2370 C.3       2 UNK         0.0269 
     63 CB        -83.1549   24.8515  -75.6953 C.3       2 UNK        -0.1926 
     64 N         -81.6893   25.2872  -73.7775 N.am      2 UNK        -0.4687 
     65 C         -80.7072   25.8379  -73.0483 C.2       1 UNK         0.5165 
     66 O         -79.7842   26.4859  -73.5436 O.2       1 UNK        -0.5079 
     67 H67       -80.2818   21.1226  -72.1343 H         1 UNK         0.0900 
     68 H68       -79.2981   21.3523  -70.6866 H         1 UNK         0.0900 
     69 H69       -81.0384   21.6350  -70.6239 H         1 UNK         0.0900 
     70 H70       -81.6210   23.7847  -70.7501 H         1 UNK         0.2959 
     71 H71       -81.7123   25.9270  -71.1848 H         1 UNK         0.1079 
     72 H72       -79.4777   25.7058  -69.7685 H         1 UNK         0.0837 
     73 H73       -78.6759   26.2064  -71.2202 H         1 UNK         0.0837 
     74 H74       -78.4977   29.6518  -69.6560 H         1 UNK         0.0685 
     75 H75       -77.7027   28.1131  -69.8645 H         1 UNK         0.0685 
     76 H76       -79.9583   29.9692  -72.2653 H         1 UNK         0.1434 
     77 H77       -76.8102   30.6952  -75.0790 H         1 UNK         0.1329 
     78 H78       -75.9788   28.6095  -71.4318 H         1 UNK         0.1335 
     79 H79       -74.7672   29.3027  -74.8365 H         1 UNK         0.0680 
     80 H80       -74.3545   28.5563  -73.3189 H         1 UNK         0.0680 
     81 H81       -73.9073   31.4173  -71.0200 H         1 UNK         0.1032 
     82 H82       -73.8981   29.6933  -71.2499 H         1 UNK         0.1032 
     83 H83       -71.5062   31.5502  -71.5816 H         1 UNK         0.0461 
     84 H84       -69.8867   29.4075  -70.0100 H         1 UNK         0.3453 
     85 H85       -70.3067   29.8035  -68.3619 H         1 UNK         0.3453 
     86 H86       -70.4592   30.0204  -72.7291 H         1 UNK         0.2984 
     87 H87       -69.3686   28.0362  -72.9853 H         1 UNK         0.0554 
     88 H88       -69.6654   26.0346  -71.6077 H         1 UNK         0.0847 
     89 H89       -69.3734   25.5667  -73.2753 H         1 UNK         0.0847 
     90 H90       -70.9981   25.4756  -72.5977 H         1 UNK         0.0847 
     91 H91       -70.1720   28.2507  -75.0246 H         1 UNK         0.3141 
     92 H92       -72.5064   28.2291  -76.6715 H         1 UNK         0.0743 
     93 H93       -69.9270   26.6191  -77.1886 H         1 UNK         0.0784 
     94 H94       -70.7201   27.6225  -78.3965 H         1 UNK         0.0784 
     95 H95       -70.0343   28.3654  -76.9743 H         1 UNK         0.0784 
     96 H96       -72.8328   25.4405  -76.5545 H         1 UNK         0.3213 
     97 H97       -73.7191   24.6827  -79.7619 H         1 UNK         0.0855 
     98 H98       -74.1850   23.9252  -76.8256 H         1 UNK         0.0814 
     99 H99       -72.7627   23.5084  -77.7853 H         1 UNK         0.0814 
    100 H100      -74.3326   22.8568  -78.2109 H         1 UNK         0.0814 
    101 H101      -76.0467   25.0305  -77.9809 H         1 UNK         0.3105 
    102 H102      -78.0214   26.5846  -80.4933 H         1 UNK         0.0547 
    103 H103      -79.5770   24.7469  -79.8880 H         1 UNK         0.0837 
    104 H104      -78.2996   24.1496  -80.9363 H         1 UNK         0.0837 
    105 H105      -78.2474   23.8093  -79.2123 H         1 UNK         0.0837 
    106 H106      -78.5340   25.8190  -77.7703 H         1 UNK         0.3020 
    107 H107      -77.2587   28.7951  -76.3218 H         1 UNK         0.1245 
    108 H108      -79.7876   28.3951  -75.3294 H         1 UNK         0.0781 
    109 H109      -80.1508   28.2307  -77.0169 H         1 UNK         0.0781 
    110 H110      -80.5354   30.8178  -74.3929 H         1 UNK         0.0836 
    111 H111      -79.3904   32.0994  -74.7016 H         1 UNK         0.0836 
    112 H112      -78.4940   26.5518  -75.1032 H         1 UNK         0.3022 
    113 H113      -75.4360   24.6910  -74.7735 H         1 UNK         0.0747 
    114 H114      -77.0920   26.2748  -72.7554 H         1 UNK         0.0793 
    115 H115      -76.2360   24.7798  -72.3673 H         1 UNK         0.0793 
    116 H116      -75.3413   26.2101  -72.8673 H         1 UNK         0.0793 
    117 H117      -78.0993   24.1473  -73.8959 H         1 UNK         0.3047 
    118 H118      -79.1999   22.5901  -76.9628 H         1 UNK         0.0822 
    119 H119      -78.0789   20.8504  -75.6131 H         1 UNK         0.0807 
    120 H120      -79.7996   20.8631  -75.2649 H         1 UNK         0.0807 
    121 H121      -78.6579   21.5708  -74.1219 H         1 UNK         0.0807 
    122 H122      -80.5288   23.2647  -74.4988 H         1 UNK         0.2946 
    123 H123      -81.7208   26.4383  -75.5096 H         1 UNK         0.1144 
    124 H124      -83.9713   25.4204  -75.2499 H         1 UNK         0.0793 
    125 H125      -83.2918   23.8021  -75.4313 H         1 UNK         0.0793 
    126 H126      -83.2603   24.9315  -76.7784 H         1 UNK         0.0793 
    127 H127      -82.4007   24.7481  -73.3045 H         1 UNK         0.2896 
@<TRIPOS>BOND
     1    1    2 1    
     2    1   67 1    
     3    1   68 1    
     4    1   69 1    
     5    2    3 2    
     6    2    4 am   BACKBONE|DICT|INTERRES
     7    4    5 1    
     8    4   70 1    
     9    5    6 1    
    10    5   65 1    
    11    5   71 1    
    12    6    7 1    
    13    6   72 1    
    14    6   73 1    
    15    7    8 1    
    16    8    9 1    
    17    8   74 1    
    18    8   75 1    
    19    9   10 ar   
    20    9   14 ar   
    21   10   11 ar   
    22   10   76 1    
    23   11   12 ar   
    24   11   48 1    
    25   12   13 ar   
    26   12   77 1    
    27   13   14 ar   
    28   13   15 1    
    29   14   78 1    
    30   15   16 1    
    31   15   79 1    
    32   15   80 1    
    33   16   17 1    
    34   17   18 1    
    35   17   81 1    
    36   17   82 1    
    37   18   19 1    
    38   18   22 1    
    39   18   83 1    
    40   19   20 am   BACKBONE|DICT|INTERRES
    41   19   21 2    
    42   20   84 1    
    43   20   85 1    
    44   22   23 am   BACKBONE|DICT|INTERRES
    45   22   86 1    
    46   23   24 2    
    47   23   25 1    
    48   25   26 1    
    49   25   27 1    
    50   25   87 1    
    51   26   88 1    
    52   26   89 1    
    53   26   90 1    
    54   27   28 am   BACKBONE|DICT|INTERRES
    55   27   91 1    
    56   28   29 2    
    57   28   30 1    
    58   30   31 1    
    59   30   32 1    
    60   30   92 1    
    61   31   93 1    
    62   31   94 1    
    63   31   95 1    
    64   32   33 am   BACKBONE|DICT|INTERRES
    65   32   96 1    
    66   33   34 2    
    67   33   35 1    
    68   35   36 1    
    69   35   37 1    
    70   35   97 1    
    71   36   98 1    
    72   36   99 1    
    73   36  100 1    
    74   37   38 am   BACKBONE|DICT|INTERRES
    75   37  101 1    
    76   38   39 2    
    77   38   40 1    
    78   40   41 1    
    79   40   42 1    
    80   40  102 1    
    81   41  103 1    
    82   41  104 1    
    83   41  105 1    
    84   42   43 am   BACKBONE|DICT|INTERRES
    85   42  106 1    
    86   43   44 2    
    87   43   45 1    
    88   45   46 1    
    89   45   49 1    
    90   45  107 1    
    91   46   47 1    
    92   46  108 1    
    93   46  109 1    
    94   47   48 1    
    95   48  110 1    
    96   48  111 1    
    97   49   50 am   BACKBONE|DICT|INTERRES
    98   49  112 1    
    99   50   51 2    
   100   50   52 1    
   101   52   53 1    
   102   52   54 1    
   103   52  113 1    
   104   53  114 1    
   105   53  115 1    
   106   53  116 1    
   107   54   55 am   BACKBONE|DICT|INTERRES
   108   54  117 1    
   109   55   56 2    
   110   55   57 1    
   111   57   58 1    
   112   57   59 1    
   113   57  118 1    
   114   58  119 1    
   115   58  120 1    
   116   58  121 1    
   117   59   60 am   BACKBONE|DICT|INTERRES
   118   59  122 1    
   119   60   61 2    
   120   60   62 1    
   121   62   63 1    
   122   62   64 1    
   123   62  123 1    
   124   63  124 1    
   125   63  125 1    
   126   63  126 1    
   127   64   65 am   BACKBONE|DICT|INTERRES
   128   64  127 1    
   129   65   66 2    
@<TRIPOS>SUBSTRUCTURE
     1 UNK         1 GROUP             0       ****    0 ROOT    
