@<TRIPOS>MOLECULE
3R135
127   129    1
SMALL
USER_CHARGES


@<TRIPOS>ATOM
      1 CA        -85.0131   27.9008  -72.9610 C.3       0 UNK        -0.1998 
      2 C         -84.0755   28.2640  -74.1025 C.2       0 UNK         0.4909 
      3 O         -84.5383   28.6540  -75.1747 O.2       0 UNK        -0.5240 
      4 N         -82.7605   28.1336  -73.8821 N.am      1 UNK        -0.4739 
      5 CA        -81.7128   28.4496  -74.8650 C.3       1 UNK         0.0864 
      6 C6        -80.3702   28.8091  -74.1786 C.3       11 UNK        -0.0881 
      7 S7        -80.4775   30.3863  -73.2634 S.3       11 UNK        -0.2682 
      8 C8        -80.4525   29.8539  -71.5221 C.3       11 UNK         0.0289 
      9 C9        -79.0810   29.3526  -71.0919 C.ar      11 UNK        -0.0687 
     10 C10       -78.8697   27.9909  -70.8606 C.ar      11 UNK        -0.0823 
     11 C11       -77.6147   27.5261  -70.4578 C.ar      11 UNK        -0.0830 
     12 C12       -76.5651   28.4311  -70.2844 C.ar      11 UNK        -0.1021 
     13 C13       -76.7621   29.7949  -70.5166 C.ar      11 UNK        -0.0753 
     14 C14       -78.0248   30.2515  -70.9098 C.ar      11 UNK        -0.0933 
     15 C15       -75.6090   30.7726  -70.3420 C.3       11 UNK         0.0166 
     16 S16       -75.0804   31.4944  -71.9272 S.3       11 UNK        -0.2615 
     17 C17       -74.4401   30.0406  -72.8285 C.3       11 UNK        -0.0865 
     18 CA        -72.9144   30.1430  -73.1030 C.3       10 UNK         0.0862 
     19 C         -72.0731   29.4568  -71.9943 C.2       10 UNK         0.5551 
     20 N         -71.8432   30.1436  -70.8837 N.am      10 UNK        -0.7319 
     21 O         -71.6558   28.3064  -72.1114 O.2       10 UNK        -0.5018 
     22 N         -72.5980   29.6270  -74.4397 N.am      10 UNK        -0.4509 
     23 C         -71.6617   30.1315  -75.2513 C.2       10 UNK         0.4899 
     24 O         -70.9160   31.0631  -74.9422 O.2       10 UNK        -0.4839 
     25 CA        -71.5870   29.5253  -76.6640 C.3       9 UNK         0.0222 
     26 CB        -70.3923   30.0434  -77.4951 C.3       9 UNK        -0.1966 
     27 N         -71.6513   28.0615  -76.6672 N.am      9 UNK        -0.4218 
     28 C         -70.7321   27.1967  -76.2092 C.2       9 UNK         0.5020 
     29 O         -69.6704   27.5407  -75.6876 O.2       9 UNK        -0.5274 
     30 CA        -71.0242   25.6863  -76.3552 C.3       8 UNK         0.0270 
     31 CB        -71.0301   25.0036  -74.9772 C.3       8 UNK        -0.1976 
     32 N         -72.2822   25.3804  -77.0442 N.am      8 UNK        -0.4313 
     33 C         -72.5119   25.5308  -78.3560 C.2       8 UNK         0.5041 
     34 O         -71.6480   25.8568  -79.1702 O.2       8 UNK        -0.5577 
     35 CA        -73.9666   25.3507  -78.8262 C.3       7 UNK         0.0284 
     36 CB        -74.2425   23.8909  -79.2219 C.3       7 UNK        -0.1958 
     37 N         -74.9436   25.7900  -77.8224 N.am      7 UNK        -0.4454 
     38 C         -75.1143   27.0617  -77.4294 C.2       7 UNK         0.5089 
     39 O         -74.4826   28.0109  -77.8919 O.2       7 UNK        -0.5125 
     40 CA        -76.1167   27.3054  -76.2898 C.3       6 UNK         0.0408 
     41 CB        -77.5552   27.2927  -76.8234 C.3       6 UNK        -0.1791 
     42 N         -75.9741   26.3128  -75.2225 N.am      6 UNK        -0.4762 
     43 C         -74.9264   26.2643  -74.3847 C.2       6 UNK         0.5007 
     44 O         -74.0303   27.1083  -74.3864 O.2       6 UNK        -0.5032 
     45 CA        -74.8119   25.0514  -73.4317 C.3       5 UNK         0.0783 
     46 C46       -75.3088   25.3786  -71.9999 C.3       11 UNK        -0.0857 
     47 S47       -77.1106   25.1730  -71.7837 S.3       11 UNK        -0.2512 
     48 C48       -77.4004   26.0426  -70.2174 C.3       11 UNK         0.0225 
     49 N         -75.4338   23.8360  -73.9668 N.am      5 UNK        -0.4615 
     50 C         -75.0902   23.2209  -75.1024 C.2       4 UNK         0.5053 
     51 O         -74.1075   23.5404  -75.7694 O.2       4 UNK        -0.5105 
     52 CA        -76.0188   22.1027  -75.6136 C.3       4 UNK         0.0263 
     53 CB        -75.4117   20.7263  -75.3006 C.3       4 UNK        -0.1981 
     54 N         -77.4017   22.1479  -75.1111 N.am      4 UNK        -0.4224 
     55 C         -78.2600   23.1705  -75.2492 C.2       3 UNK         0.4895 
     56 O         -77.9550   24.2538  -75.7517 O.2       3 UNK        -0.5091 
     57 CA        -79.6792   22.9451  -74.6959 C.3       3 UNK         0.0250 
     58 CB        -79.6944   22.9675  -73.1585 C.3       3 UNK        -0.1996 
     59 N         -80.6351   23.9434  -75.1807 N.am      3 UNK        -0.4254 
     60 C         -81.1761   23.9579  -76.4055 C.2       2 UNK         0.5004 
     61 O         -80.9355   23.1104  -77.2671 O.2       2 UNK        -0.5226 
     62 CA        -82.1851   25.0765  -76.7207 C.3       2 UNK         0.0269 
     63 CB        -83.6118   24.5028  -76.7730 C.3       2 UNK        -0.1926 
     64 N         -82.1636   26.1768  -75.7479 N.am      2 UNK        -0.4687 
     65 C         -81.5323   27.3457  -75.9348 C.2       1 UNK         0.5165 
     66 O         -80.8438   27.5860  -76.9267 O.2       1 UNK        -0.5079 
     67 H67       -84.4701   27.5746  -72.0741 H         1 UNK         0.0900 
     68 H68       -85.6210   28.7628  -72.6873 H         1 UNK         0.0900 
     69 H69       -85.6811   27.0956  -73.2655 H         1 UNK         0.0900 
     70 H70       -82.4372   27.8147  -72.9805 H         1 UNK         0.2959 
     71 H71       -82.0354   29.3320  -75.4232 H         1 UNK         0.1079 
     72 H72       -79.5833   28.9452  -74.9217 H         1 UNK         0.0837 
     73 H73       -80.0326   28.0031  -73.5256 H         1 UNK         0.0837 
     74 H74       -81.2175   29.0928  -71.3630 H         1 UNK         0.0685 
     75 H75       -80.7329   30.7012  -70.8947 H         1 UNK         0.0685 
     76 H76       -79.6797   27.2877  -70.9982 H         1 UNK         0.1434 
     77 H77       -75.5925   28.0727  -69.9757 H         1 UNK         0.1329 
     78 H78       -78.1810   31.3063  -71.0910 H         1 UNK         0.1335 
     79 H79       -75.9208   31.5770  -69.6745 H         1 UNK         0.0680 
     80 H80       -74.7540   30.2911  -69.8644 H         1 UNK         0.0680 
     81 H81       -74.9946   30.0043  -73.7678 H         1 UNK         0.1032 
     82 H82       -74.6961   29.1103  -72.3188 H         1 UNK         0.1032 
     83 H83       -72.6428   31.2009  -73.0988 H         1 UNK         0.0461 
     84 H84       -72.1948   31.0822  -70.7745 H         1 UNK         0.3453 
     85 H85       -71.3073   29.7176  -70.1442 H         1 UNK         0.3453 
     86 H86       -73.0915   28.7788  -74.7038 H         1 UNK         0.2984 
     87 H87       -72.4930   29.8572  -77.1728 H         1 UNK         0.0554 
     88 H88       -70.4432   31.1261  -77.6160 H         1 UNK         0.0847 
     89 H89       -70.3847   29.6072  -78.4939 H         1 UNK         0.0847 
     90 H90       -69.4365   29.8173  -77.0219 H         1 UNK         0.0847 
     91 H91       -72.5015   27.6790  -77.0636 H         1 UNK         0.3141 
     92 H92       -70.2104   25.2567  -76.9429 H         1 UNK         0.0743 
     93 H93       -70.0463   25.0637  -74.5101 H         1 UNK         0.0784 
     94 H94       -71.7353   25.4833  -74.2993 H         1 UNK         0.0784 
     95 H95       -71.2903   23.9473  -75.0505 H         1 UNK         0.0784 
     96 H96       -73.0345   25.0015  -76.4749 H         1 UNK         0.3213 
     97 H97       -74.1022   25.9728  -79.7138 H         1 UNK         0.0855 
     98 H98       -74.1103   23.2071  -78.3835 H         1 UNK         0.0814 
     99 H99       -73.5612   23.5692  -80.0108 H         1 UNK         0.0814 
    100 H100      -75.2568   23.7664  -79.6013 H         1 UNK         0.0814 
    101 H101      -75.4797   25.0709  -77.3579 H         1 UNK         0.3105 
    102 H102      -75.9222   28.2926  -75.8649 H         1 UNK         0.0547 
    103 H103      -77.7832   26.3780  -77.3717 H         1 UNK         0.0837 
    104 H104      -78.2747   27.3729  -76.0108 H         1 UNK         0.0837 
    105 H105      -77.7294   28.1294  -77.5007 H         1 UNK         0.0837 
    106 H106      -76.6701   25.5709  -75.1954 H         1 UNK         0.3020 
    107 H107      -73.7439   24.8410  -73.3556 H         1 UNK         0.1245 
    108 H108      -75.0097   26.3851  -71.7013 H         1 UNK         0.0781 
    109 H109      -74.8219   24.7070  -71.2912 H         1 UNK         0.0781 
    110 H110      -76.5692   25.8698  -69.5317 H         1 UNK         0.0836 
    111 H111      -78.2837   25.6189  -69.7371 H         1 UNK         0.0836 
    112 H112      -76.2649   23.5282  -73.4831 H         1 UNK         0.3022 
    113 H113      -76.0703   22.2118  -76.6988 H         1 UNK         0.0747 
    114 H114      -75.9885   19.9228  -75.7592 H         1 UNK         0.0793 
    115 H115      -74.3939   20.6507  -75.6868 H         1 UNK         0.0793 
    116 H116      -75.3671   20.5398  -74.2268 H         1 UNK         0.0793 
    117 H117      -77.7357   21.3044  -74.6667 H         1 UNK         0.3047 
    118 H118      -80.0098   21.9590  -75.0298 H         1 UNK         0.0822 
    119 H119      -80.6593   22.6381  -72.7726 H         1 UNK         0.0807 
    120 H120      -79.5117   23.9688  -72.7704 H         1 UNK         0.0807 
    121 H121      -78.9381   22.3061  -72.7340 H         1 UNK         0.0807 
    122 H122      -80.8532   24.7050  -74.5570 H         1 UNK         0.2946 
    123 H123      -81.9382   25.4539  -77.7160 H         1 UNK         0.1144 
    124 H124      -84.3359   25.2680  -77.0538 H         1 UNK         0.0793 
    125 H125      -83.9173   24.0879  -75.8116 H         1 UNK         0.0793 
    126 H126      -83.6861   23.7032  -77.5116 H         1 UNK         0.0793 
    127 H127      -82.7291   26.0687  -74.9183 H         1 UNK         0.2896 
@<TRIPOS>BOND
     1    1    2 1    
     2    1   67 1    
     3    1   68 1    
     4    1   69 1    
     5    2    3 2    
     6    2    4 am   BACKBONE|DICT|INTERRES
     7    4    5 1    
     8    4   70 1    
     9    5    6 1    
    10    5   65 1    
    11    5   71 1    
    12    6    7 1    
    13    6   72 1    
    14    6   73 1    
    15    7    8 1    
    16    8    9 1    
    17    8   74 1    
    18    8   75 1    
    19    9   10 ar   
    20    9   14 ar   
    21   10   11 ar   
    22   10   76 1    
    23   11   12 ar   
    24   11   48 1    
    25   12   13 ar   
    26   12   77 1    
    27   13   14 ar   
    28   13   15 1    
    29   14   78 1    
    30   15   16 1    
    31   15   79 1    
    32   15   80 1    
    33   16   17 1    
    34   17   18 1    
    35   17   81 1    
    36   17   82 1    
    37   18   19 1    
    38   18   22 1    
    39   18   83 1    
    40   19   20 am   BACKBONE|DICT|INTERRES
    41   19   21 2    
    42   20   84 1    
    43   20   85 1    
    44   22   23 am   BACKBONE|DICT|INTERRES
    45   22   86 1    
    46   23   24 2    
    47   23   25 1    
    48   25   26 1    
    49   25   27 1    
    50   25   87 1    
    51   26   88 1    
    52   26   89 1    
    53   26   90 1    
    54   27   28 am   BACKBONE|DICT|INTERRES
    55   27   91 1    
    56   28   29 2    
    57   28   30 1    
    58   30   31 1    
    59   30   32 1    
    60   30   92 1    
    61   31   93 1    
    62   31   94 1    
    63   31   95 1    
    64   32   33 am   BACKBONE|DICT|INTERRES
    65   32   96 1    
    66   33   34 2    
    67   33   35 1    
    68   35   36 1    
    69   35   37 1    
    70   35   97 1    
    71   36   98 1    
    72   36   99 1    
    73   36  100 1    
    74   37   38 am   BACKBONE|DICT|INTERRES
    75   37  101 1    
    76   38   39 2    
    77   38   40 1    
    78   40   41 1    
    79   40   42 1    
    80   40  102 1    
    81   41  103 1    
    82   41  104 1    
    83   41  105 1    
    84   42   43 am   BACKBONE|DICT|INTERRES
    85   42  106 1    
    86   43   44 2    
    87   43   45 1    
    88   45   46 1    
    89   45   49 1    
    90   45  107 1    
    91   46   47 1    
    92   46  108 1    
    93   46  109 1    
    94   47   48 1    
    95   48  110 1    
    96   48  111 1    
    97   49   50 am   BACKBONE|DICT|INTERRES
    98   49  112 1    
    99   50   51 2    
   100   50   52 1    
   101   52   53 1    
   102   52   54 1    
   103   52  113 1    
   104   53  114 1    
   105   53  115 1    
   106   53  116 1    
   107   54   55 am   BACKBONE|DICT|INTERRES
   108   54  117 1    
   109   55   56 2    
   110   55   57 1    
   111   57   58 1    
   112   57   59 1    
   113   57  118 1    
   114   58  119 1    
   115   58  120 1    
   116   58  121 1    
   117   59   60 am   BACKBONE|DICT|INTERRES
   118   59  122 1    
   119   60   61 2    
   120   60   62 1    
   121   62   63 1    
   122   62   64 1    
   123   62  123 1    
   124   63  124 1    
   125   63  125 1    
   126   63  126 1    
   127   64   65 am   BACKBONE|DICT|INTERRES
   128   64  127 1    
   129   65   66 2    
@<TRIPOS>SUBSTRUCTURE
     1 UNK         1 GROUP             0       ****    0 ROOT    
