@<TRIPOS>MOLECULE
3R135
127   129    1
SMALL
USER_CHARGES


@<TRIPOS>ATOM
      1 CA        -84.1971   28.5640  -74.7405 C.3       0 UNK        -0.1998 
      2 C         -83.3998   28.6053  -73.4391 C.2       0 UNK         0.4909 
      3 O         -84.0007   28.6309  -72.3669 O.2       0 UNK        -0.5240 
      4 N         -82.0589   28.6245  -73.4653 N.am      1 UNK        -0.4739 
      5 CA        -81.1834   28.5427  -74.6433 C.3       1 UNK         0.0864 
      6 C6        -79.7123   28.8983  -74.3031 C.3       11 UNK        -0.0881 
      7 S7        -79.5022   30.6265  -73.7514 S.3       11 UNK        -0.2682 
      8 C8        -79.6644   30.5183  -71.9383 C.3       11 UNK         0.0289 
      9 C9        -78.4732   29.8386  -71.2799 C.ar      11 UNK        -0.0687 
     10 C10       -78.5144   28.4751  -70.9750 C.ar      11 UNK        -0.0823 
     11 C11       -77.4306   27.8519  -70.3498 C.ar      11 UNK        -0.0830 
     12 C12       -76.3084   28.6115  -70.0029 C.ar      11 UNK        -0.1021 
     13 C13       -76.2576   29.9777  -70.2992 C.ar      11 UNK        -0.0753 
     14 C14       -77.3412   30.5841  -70.9413 C.ar      11 UNK        -0.0933 
     15 C15       -75.0434   30.8057  -69.9048 C.3       11 UNK         0.0166 
     16 S16       -73.5930   30.4491  -70.9441 S.3       11 UNK        -0.2615 
     17 C17       -74.1382   31.0106  -72.5984 C.3       11 UNK        -0.0865 
     18 CA        -74.3824   29.8291  -73.5863 C.3       10 UNK         0.0862 
     19 C         -74.9114   30.2903  -74.9769 C.2       10 UNK         0.5551 
     20 N         -75.9845   31.0683  -75.0065 N.am      10 UNK        -0.7319 
     21 O         -74.3977   29.9245  -76.0340 O.2       10 UNK        -0.5018 
     22 N         -73.2465   28.8964  -73.6769 N.am      10 UNK        -0.4509 
     23 C         -71.9797   29.1874  -74.0007 C.2       10 UNK         0.4899 
     24 O         -71.5611   30.3144  -74.2653 O.2       10 UNK        -0.4839 
     25 CA        -71.0161   27.9975  -74.0458 C.3       9 UNK         0.0222 
     26 CB        -70.8161   27.3722  -72.6511 C.3       9 UNK        -0.1966 
     27 N         -71.5115   27.0088  -74.9983 N.am      9 UNK        -0.4218 
     28 C         -70.7697   26.0885  -75.6269 C.2       9 UNK         0.5020 
     29 O         -69.5723   25.8980  -75.4093 O.2       9 UNK        -0.5274 
     30 CA        -71.4826   25.2615  -76.7094 C.3       8 UNK         0.0270 
     31 CB        -72.1860   24.0404  -76.0940 C.3       8 UNK        -0.1976 
     32 N         -72.4572   26.0787  -77.4341 N.am      8 UNK        -0.4313 
     33 C         -72.1492   26.9622  -78.3929 C.2       8 UNK         0.5041 
     34 O         -71.0174   27.0753  -78.8664 O.2       8 UNK        -0.5577 
     35 CA        -73.2546   27.9172  -78.8872 C.3       7 UNK         0.0284 
     36 CB        -73.5410   27.7310  -80.3919 C.3       7 UNK        -0.1958 
     37 N         -74.4892   27.8964  -78.0896 N.am      7 UNK        -0.4454 
     38 C         -75.4159   26.9318  -78.0136 C.2       7 UNK         0.5089 
     39 O         -75.3744   25.8716  -78.6385 O.2       7 UNK        -0.5125 
     40 CA        -76.5644   27.1831  -77.0241 C.3       6 UNK         0.0408 
     41 CB        -77.9229   27.0415  -77.7269 C.3       6 UNK        -0.1791 
     42 N         -76.5236   26.2962  -75.8568 N.am      6 UNK        -0.4762 
     43 C         -75.4843   26.1350  -75.0230 C.2       6 UNK         0.5007 
     44 O         -74.3788   26.6511  -75.1915 O.2       6 UNK        -0.5032 
     45 CA        -75.7077   25.2808  -73.7672 C.3       5 UNK         0.0783 
     46 C46       -76.4823   26.0931  -72.7032 C.3       11 UNK        -0.0857 
     47 S47       -76.2572   25.4067  -71.0308 S.3       11 UNK        -0.2512 
     48 C48       -77.4774   26.3557  -70.0611 C.3       11 UNK         0.0225 
     49 N         -76.3894   24.0332  -74.1099 N.am      5 UNK        -0.4615 
     50 C         -75.8261   22.8187  -74.0735 C.2       4 UNK         0.5053 
     51 O         -74.6601   22.6128  -73.7360 O.2       4 UNK        -0.5105 
     52 CA        -76.7067   21.6174  -74.4697 C.3       4 UNK         0.0263 
     53 CB        -77.2828   20.9423  -73.2143 C.3       4 UNK        -0.1981 
     54 N         -77.8071   21.9748  -75.3672 N.am      4 UNK        -0.4224 
     55 C         -77.6565   22.3667  -76.6399 C.2       3 UNK         0.4895 
     56 O         -76.5781   22.3552  -77.2333 O.2       3 UNK        -0.5091 
     57 CA        -78.9119   22.8722  -77.3771 C.3       3 UNK         0.0250 
     58 CB        -79.4483   21.7846  -78.3225 C.3       3 UNK        -0.1996 
     59 N         -80.0091   23.3417  -76.5173 N.am      3 UNK        -0.4254 
     60 C         -79.9344   24.3267  -75.6111 C.2       2 UNK         0.5004 
     61 O         -78.8863   24.8974  -75.2980 O.2       2 UNK        -0.5226 
     62 CA        -81.2420   24.6946  -74.8904 C.3       2 UNK         0.0269 
     63 CB        -81.4305   23.8034  -73.6521 C.3       2 UNK        -0.1926 
     64 N         -81.2594   26.0972  -74.4682 N.am      2 UNK        -0.4687 
     65 C         -81.2550   27.1499  -75.2990 C.2       1 UNK         0.5165 
     66 O         -81.3404   27.0585  -76.5237 O.2       1 UNK        -0.5079 
     67 H67       -85.2430   28.8042  -74.5506 H         1 UNK         0.0900 
     68 H68       -84.1619   27.5695  -75.1836 H         1 UNK         0.0900 
     69 H69       -83.8254   29.2877  -75.4644 H         1 UNK         0.0900 
     70 H70       -81.5780   28.6763  -72.5809 H         1 UNK         0.2959 
     71 H71       -81.5314   29.2671  -75.3822 H         1 UNK         0.1079 
     72 H72       -79.2975   28.2110  -73.5668 H         1 UNK         0.0837 
     73 H73       -79.0848   28.7832  -75.1890 H         1 UNK         0.0837 
     74 H74       -79.7628   31.5311  -71.5444 H         1 UNK         0.0685 
     75 H75       -80.5901   30.0105  -71.6697 H         1 UNK         0.0685 
     76 H76       -79.3914   27.8957  -71.2268 H         1 UNK         0.1434 
     77 H77       -75.4680   28.1364  -69.5150 H         1 UNK         0.1329 
     78 H78       -77.3119   31.6414  -71.1668 H         1 UNK         0.1335 
     79 H79       -75.2655   31.8730  -69.9516 H         1 UNK         0.0680 
     80 H80       -74.7893   30.5940  -68.8652 H         1 UNK         0.0680 
     81 H81       -73.3826   31.6904  -72.9943 H         1 UNK         0.1032 
     82 H82       -75.0391   31.6143  -72.4866 H         1 UNK         0.1032 
     83 H83       -75.1918   29.2289  -73.1705 H         1 UNK         0.0461 
     84 H84       -76.4676   31.3354  -74.1641 H         1 UNK         0.3453 
     85 H85       -76.3424   31.3665  -75.8996 H         1 UNK         0.3453 
     86 H86       -73.4909   27.9255  -73.5497 H         1 UNK         0.2984 
     87 H87       -70.0525   28.3703  -74.4002 H         1 UNK         0.0554 
     88 H88       -70.0386   26.6085  -72.6669 H         1 UNK         0.0847 
     89 H89       -71.7293   26.9090  -72.2763 H         1 UNK         0.0847 
     90 H90       -70.5114   28.1278  -71.9257 H         1 UNK         0.0847 
     91 H91       -72.4968   27.0773  -75.2426 H         1 UNK         0.3141 
     92 H92       -70.7297   24.9020  -77.4142 H         1 UNK         0.0743 
     93 H93       -72.9292   24.3272  -75.3498 H         1 UNK         0.0784 
     94 H94       -72.6900   23.4456  -76.8562 H         1 UNK         0.0784 
     95 H95       -71.4668   23.3883  -75.5968 H         1 UNK         0.0784 
     96 H96       -73.4084   26.0691  -77.0874 H         1 UNK         0.3213 
     97 H97       -72.8512   28.9228  -78.7567 H         1 UNK         0.0855 
     98 H98       -72.6406   27.9056  -80.9822 H         1 UNK         0.0814 
     99 H99       -74.2981   28.4323  -80.7427 H         1 UNK         0.0814 
    100 H100      -73.8829   26.7218  -80.6219 H         1 UNK         0.0814 
    101 H101      -74.5793   28.6795  -77.4425 H         1 UNK         0.3105 
    102 H102      -76.4921   28.2064  -76.6520 H         1 UNK         0.0547 
    103 H103      -77.9924   27.7119  -78.5843 H         1 UNK         0.0837 
    104 H104      -78.0845   26.0275  -78.0917 H         1 UNK         0.0837 
    105 H105      -78.7435   27.2880  -77.0567 H         1 UNK         0.0837 
    106 H106      -77.3908   25.8038  -75.6478 H         1 UNK         0.3020 
    107 H107      -74.7126   25.0669  -73.3692 H         1 UNK         0.1245 
    108 H108      -77.5470   26.1379  -72.9415 H         1 UNK         0.0781 
    109 H109      -76.1307   27.1256  -72.6708 H         1 UNK         0.0781 
    110 H110      -77.2939   26.1878  -68.9991 H         1 UNK         0.0836 
    111 H111      -78.4709   25.9533  -70.2652 H         1 UNK         0.0836 
    112 H112      -77.3450   24.1257  -74.4401 H         1 UNK         0.3022 
    113 H113      -76.0678   20.8970  -74.9851 H         1 UNK         0.0747 
    114 H114      -77.8512   20.0475  -73.4688 H         1 UNK         0.0793 
    115 H115      -76.4850   20.6354  -72.5364 H         1 UNK         0.0793 
    116 H116      -77.9399   21.6139  -72.6599 H         1 UNK         0.0793 
    117 H117      -78.7333   22.0012  -74.9674 H         1 UNK         0.3047 
    118 H118      -78.5946   23.7208  -77.9853 H         1 UNK         0.0822 
    119 H119      -80.2619   22.1616  -78.9426 H         1 UNK         0.0807 
    120 H120      -79.8169   20.9178  -77.7724 H         1 UNK         0.0807 
    121 H121      -78.6673   21.4332  -78.9985 H         1 UNK         0.0807 
    122 H122      -80.9081   22.9108  -76.6810 H         1 UNK         0.2946 
    123 H123      -82.0772   24.5380  -75.5770 H         1 UNK         0.1144 
    124 H124      -81.4645   22.7482  -73.9269 H         1 UNK         0.0793 
    125 H125      -82.3649   24.0305  -73.1383 H         1 UNK         0.0793 
    126 H126      -80.6157   23.9280  -72.9372 H         1 UNK         0.0793 
    127 H127      -81.1989   26.2701  -73.4761 H         1 UNK         0.2896 
@<TRIPOS>BOND
     1    1    2 1    
     2    1   67 1    
     3    1   68 1    
     4    1   69 1    
     5    2    3 2    
     6    2    4 am   BACKBONE|DICT|INTERRES
     7    4    5 1    
     8    4   70 1    
     9    5    6 1    
    10    5   65 1    
    11    5   71 1    
    12    6    7 1    
    13    6   72 1    
    14    6   73 1    
    15    7    8 1    
    16    8    9 1    
    17    8   74 1    
    18    8   75 1    
    19    9   10 ar   
    20    9   14 ar   
    21   10   11 ar   
    22   10   76 1    
    23   11   12 ar   
    24   11   48 1    
    25   12   13 ar   
    26   12   77 1    
    27   13   14 ar   
    28   13   15 1    
    29   14   78 1    
    30   15   16 1    
    31   15   79 1    
    32   15   80 1    
    33   16   17 1    
    34   17   18 1    
    35   17   81 1    
    36   17   82 1    
    37   18   19 1    
    38   18   22 1    
    39   18   83 1    
    40   19   20 am   BACKBONE|DICT|INTERRES
    41   19   21 2    
    42   20   84 1    
    43   20   85 1    
    44   22   23 am   BACKBONE|DICT|INTERRES
    45   22   86 1    
    46   23   24 2    
    47   23   25 1    
    48   25   26 1    
    49   25   27 1    
    50   25   87 1    
    51   26   88 1    
    52   26   89 1    
    53   26   90 1    
    54   27   28 am   BACKBONE|DICT|INTERRES
    55   27   91 1    
    56   28   29 2    
    57   28   30 1    
    58   30   31 1    
    59   30   32 1    
    60   30   92 1    
    61   31   93 1    
    62   31   94 1    
    63   31   95 1    
    64   32   33 am   BACKBONE|DICT|INTERRES
    65   32   96 1    
    66   33   34 2    
    67   33   35 1    
    68   35   36 1    
    69   35   37 1    
    70   35   97 1    
    71   36   98 1    
    72   36   99 1    
    73   36  100 1    
    74   37   38 am   BACKBONE|DICT|INTERRES
    75   37  101 1    
    76   38   39 2    
    77   38   40 1    
    78   40   41 1    
    79   40   42 1    
    80   40  102 1    
    81   41  103 1    
    82   41  104 1    
    83   41  105 1    
    84   42   43 am   BACKBONE|DICT|INTERRES
    85   42  106 1    
    86   43   44 2    
    87   43   45 1    
    88   45   46 1    
    89   45   49 1    
    90   45  107 1    
    91   46   47 1    
    92   46  108 1    
    93   46  109 1    
    94   47   48 1    
    95   48  110 1    
    96   48  111 1    
    97   49   50 am   BACKBONE|DICT|INTERRES
    98   49  112 1    
    99   50   51 2    
   100   50   52 1    
   101   52   53 1    
   102   52   54 1    
   103   52  113 1    
   104   53  114 1    
   105   53  115 1    
   106   53  116 1    
   107   54   55 am   BACKBONE|DICT|INTERRES
   108   54  117 1    
   109   55   56 2    
   110   55   57 1    
   111   57   58 1    
   112   57   59 1    
   113   57  118 1    
   114   58  119 1    
   115   58  120 1    
   116   58  121 1    
   117   59   60 am   BACKBONE|DICT|INTERRES
   118   59  122 1    
   119   60   61 2    
   120   60   62 1    
   121   62   63 1    
   122   62   64 1    
   123   62  123 1    
   124   63  124 1    
   125   63  125 1    
   126   63  126 1    
   127   64   65 am   BACKBONE|DICT|INTERRES
   128   64  127 1    
   129   65   66 2    
@<TRIPOS>SUBSTRUCTURE
     1 UNK         1 GROUP             0       ****    0 ROOT    
