@<TRIPOS>MOLECULE
3R135
127   129    1
SMALL
USER_CHARGES


@<TRIPOS>ATOM
      1 CA        -83.3308   29.4150  -74.4895 C.3       0 UNK        -0.1998 
      2 C         -81.8925   29.1410  -74.0771 C.2       0 UNK         0.4909 
      3 O         -81.0001   29.9204  -74.4125 O.2       0 UNK        -0.5240 
      4 N         -81.6598   28.0403  -73.3509 N.am      1 UNK        -0.4739 
      5 CA        -80.3380   27.5891  -72.9088 C.3       1 UNK         0.0864 
      6 C6        -80.4397   26.5772  -71.7353 C.3       11 UNK        -0.0881 
      7 S7        -80.6051   27.4518  -70.1408 S.3       11 UNK        -0.2682 
      8 C8        -78.9695   27.1878  -69.3628 C.3       11 UNK         0.0289 
      9 C9        -77.8035   27.4521  -70.3102 C.ar      11 UNK        -0.0687 
     10 C10       -76.9311   26.4141  -70.6556 C.ar      11 UNK        -0.0823 
     11 C11       -75.9007   26.6213  -71.5812 C.ar      11 UNK        -0.0830 
     12 C12       -75.7442   27.8897  -72.1482 C.ar      11 UNK        -0.1021 
     13 C13       -76.5868   28.9441  -71.7854 C.ar      11 UNK        -0.0753 
     14 C14       -77.6084   28.7230  -70.8581 C.ar      11 UNK        -0.0933 
     15 C15       -76.3999   30.3159  -72.4101 C.3       11 UNK         0.0166 
     16 S16       -75.0245   31.2124  -71.6295 S.3       11 UNK        -0.2615 
     17 C17       -74.9742   32.7220  -72.6594 C.3       11 UNK        -0.0865 
     18 CA        -73.8023   32.7517  -73.6776 C.3       10 UNK         0.0862 
     19 C         -72.4279   33.0228  -72.9962 C.2       10 UNK         0.5551 
     20 N         -71.4323   32.1562  -73.1375 N.am      10 UNK        -0.7319 
     21 O         -72.2588   34.0490  -72.3419 O.2       10 UNK        -0.5018 
     22 N         -73.8359   31.5823  -74.5722 N.am      10 UNK        -0.4509 
     23 C         -73.3783   31.5603  -75.8286 C.2       10 UNK         0.4899 
     24 O         -72.8652   32.5273  -76.3932 O.2       10 UNK        -0.4839 
     25 CA        -73.4925   30.2110  -76.5501 C.3       9 UNK         0.0222 
     26 CB        -73.1390   30.2953  -78.0473 C.3       9 UNK        -0.1966 
     27 N         -72.6095   29.2474  -75.8962 N.am      9 UNK        -0.4218 
     28 C         -72.9849   28.0688  -75.3887 C.2       9 UNK         0.5020 
     29 O         -74.1398   27.6346  -75.3969 O.2       9 UNK        -0.5274 
     30 CA        -71.8779   27.2425  -74.7315 C.3       8 UNK         0.0270 
     31 CB        -71.7048   27.6229  -73.2490 C.3       8 UNK        -0.1976 
     32 N         -72.2226   25.8307  -74.8543 N.am      8 UNK        -0.4313 
     33 C         -71.3459   24.8220  -74.8905 C.2       8 UNK         0.5041 
     34 O         -70.1288   24.9731  -74.7708 O.2       8 UNK        -0.5577 
     35 CA        -71.9008   23.3992  -75.0822 C.3       7 UNK         0.0284 
     36 CB        -71.9510   22.6646  -73.7321 C.3       7 UNK        -0.1958 
     37 N         -73.2271   23.3306  -75.7009 N.am      7 UNK        -0.4454 
     38 C         -73.5414   23.6710  -76.9566 C.2       7 UNK         0.5089 
     39 O         -72.7326   24.1563  -77.7476 O.2       7 UNK        -0.5125 
     40 CA        -74.9948   23.4344  -77.4258 C.3       6 UNK         0.0408 
     41 CB        -75.1030   22.1221  -78.2253 C.3       6 UNK        -0.1791 
     42 N         -76.0319   23.5000  -76.3813 N.am      6 UNK        -0.4762 
     43 C         -76.1998   22.7091  -75.3089 C.2       6 UNK         0.5007 
     44 O         -75.4697   21.7537  -75.0439 O.2       6 UNK        -0.5032 
     45 CA        -77.3477   23.0646  -74.3465 C.3       5 UNK         0.0783 
     46 C46       -76.9811   24.2558  -73.4313 C.3       11 UNK        -0.0857 
     47 S47       -75.7250   23.8668  -72.1728 S.3       11 UNK        -0.2512 
     48 C48       -74.9355   25.5002  -71.9691 C.3       11 UNK         0.0225 
     49 N         -78.6049   23.3302  -75.0423 N.am      5 UNK        -0.4615 
     50 C         -79.3398   22.4308  -75.7074 C.2       4 UNK         0.5053 
     51 O         -79.0163   21.2530  -75.8587 O.2       4 UNK        -0.5105 
     52 CA        -80.6765   22.9275  -76.2779 C.3       4 UNK         0.0263 
     53 CB        -81.7660   22.8875  -75.1933 C.3       4 UNK        -0.1981 
     54 N         -80.5593   24.2944  -76.7881 N.am      4 UNK        -0.4224 
     55 C         -80.3925   24.6122  -78.0787 C.2       3 UNK         0.4895 
     56 O         -80.3953   23.7899  -78.9957 O.2       3 UNK        -0.5091 
     57 CA        -80.1866   26.1014  -78.4144 C.3       3 UNK         0.0250 
     58 CB        -81.5333   26.7678  -78.7397 C.3       3 UNK        -0.1996 
     59 N         -79.5141   26.8684  -77.3617 N.am      3 UNK        -0.4254 
     60 C         -78.2660   26.6482  -76.9254 C.2       2 UNK         0.5004 
     61 O         -77.5321   25.7571  -77.3501 O.2       2 UNK        -0.5226 
     62 CA        -77.7616   27.5553  -75.7931 C.3       2 UNK         0.0269 
     63 CB        -77.2231   28.8675  -76.3824 C.3       2 UNK        -0.1926 
     64 N         -78.7435   27.8680  -74.7461 N.am      2 UNK        -0.4687 
     65 C         -79.5496   27.0134  -74.0986 C.2       1 UNK         0.5165 
     66 O         -79.7008   25.8306  -74.4108 O.2       1 UNK        -0.5079 
     67 H67       -84.0139   28.6501  -74.1208 H         1 UNK         0.0900 
     68 H68       -83.6560   30.3780  -74.0968 H         1 UNK         0.0900 
     69 H69       -83.4098   29.4454  -75.5760 H         1 UNK         0.0900 
     70 H70       -82.4304   27.4332  -73.1109 H         1 UNK         0.2959 
     71 H71       -79.7839   28.4622  -72.5585 H         1 UNK         0.1079 
     72 H72       -81.2908   25.9072  -71.8682 H         1 UNK         0.0837 
     73 H73       -79.5685   25.9226  -71.6853 H         1 UNK         0.0837 
     74 H74       -78.8808   27.8423  -68.4947 H         1 UNK         0.0685 
     75 H75       -78.9304   26.1665  -68.9807 H         1 UNK         0.0685 
     76 H76       -77.0662   25.4354  -70.2163 H         1 UNK         0.1434 
     77 H77       -74.9572   28.0657  -72.8679 H         1 UNK         0.1329 
     78 H78       -78.2721   29.5311  -70.5822 H         1 UNK         0.1335 
     79 H79       -76.2052   30.2060  -73.4764 H         1 UNK         0.0680 
     80 H80       -77.3140   30.9053  -72.3206 H         1 UNK         0.0680 
     81 H81       -75.9193   32.8252  -73.1948 H         1 UNK         0.1032 
     82 H82       -74.9304   33.5893  -71.9977 H         1 UNK         0.1032 
     83 H83       -73.9730   33.6312  -74.3019 H         1 UNK         0.0461 
     84 H84       -71.5634   31.3163  -73.6741 H         1 UNK         0.3453 
     85 H85       -70.5456   32.3458  -72.6976 H         1 UNK         0.3453 
     86 H86       -74.1924   30.7308  -74.1650 H         1 UNK         0.2984 
     87 H87       -74.5329   29.8965  -76.4699 H         1 UNK         0.0554 
     88 H88       -73.7786   31.0153  -78.5596 H         1 UNK         0.0847 
     89 H89       -73.2778   29.3325  -78.5394 H         1 UNK         0.0847 
     90 H90       -72.1052   30.6053  -78.2047 H         1 UNK         0.0847 
     91 H91       -71.6393   29.5216  -75.8202 H         1 UNK         0.3141 
     92 H92       -70.9444   27.4302  -75.2671 H         1 UNK         0.0743 
     93 H93       -72.6122   27.4404  -72.6738 H         1 UNK         0.0784 
     94 H94       -70.8986   27.0534  -72.7863 H         1 UNK         0.0784 
     95 H95       -71.4564   28.6791  -73.1391 H         1 UNK         0.0784 
     96 H96       -73.2034   25.6507  -75.0293 H         1 UNK         0.3213 
     97 H97       -71.2057   22.8687  -75.7364 H         1 UNK         0.0855 
     98 H98       -72.6511   23.1379  -73.0421 H         1 UNK         0.0814 
     99 H99       -70.9716   22.6603  -73.2515 H         1 UNK         0.0814 
    100 H100      -72.2540   21.6247  -73.8560 H         1 UNK         0.0814 
    101 H101      -73.9540   22.8582  -75.1707 H         1 UNK         0.3105 
    102 H102      -75.2276   24.2520  -78.1098 H         1 UNK         0.0547 
    103 H103      -74.4105   22.1217  -79.0680 H         1 UNK         0.0837 
    104 H104      -74.8678   21.2505  -77.6140 H         1 UNK         0.0837 
    105 H105      -76.1059   21.9873  -78.6304 H         1 UNK         0.0837 
    106 H106      -76.6918   24.2634  -76.5179 H         1 UNK         0.3020 
    107 H107      -77.5173   22.1898  -73.7142 H         1 UNK         0.1245 
    108 H108      -77.8652   24.5845  -72.8842 H         1 UNK         0.0781 
    109 H109      -76.6590   25.1140  -74.0224 H         1 UNK         0.0781 
    110 H110      -74.4252   25.7462  -72.9012 H         1 UNK         0.0836 
    111 H111      -74.1615   25.4241  -71.2046 H         1 UNK         0.0836 
    112 H112      -78.9833   24.2668  -74.9230 H         1 UNK         0.3022 
    113 H113      -80.9725   22.2472  -77.0793 H         1 UNK         0.0747 
    114 H114      -82.7340   23.1870  -75.5954 H         1 UNK         0.0793 
    115 H115      -81.8798   21.8798  -74.7913 H         1 UNK         0.0793 
    116 H116      -81.5320   23.5489  -74.3577 H         1 UNK         0.0793 
    117 H117      -80.4969   25.0321  -76.0948 H         1 UNK         0.3047 
    118 H118      -79.5570   26.1473  -79.3055 H         1 UNK         0.0822 
    119 H119      -81.3975   27.7962  -79.0753 H         1 UNK         0.0807 
    120 H120      -82.1975   26.7806  -77.8745 H         1 UNK         0.0807 
    121 H121      -82.0498   26.2344  -79.5391 H         1 UNK         0.0807 
    122 H122      -80.0384   27.6186  -76.9350 H         1 UNK         0.2946 
    123 H123      -76.9283   27.0402  -75.3121 H         1 UNK         0.1144 
    124 H124      -76.7319   29.4708  -75.6212 H         1 UNK         0.0793 
    125 H125      -78.0164   29.4688  -76.8282 H         1 UNK         0.0793 
    126 H126      -76.4851   28.6685  -77.1612 H         1 UNK         0.0793 
    127 H127      -78.7802   28.8367  -74.4591 H         1 UNK         0.2896 
@<TRIPOS>BOND
     1    1    2 1    
     2    1   67 1    
     3    1   68 1    
     4    1   69 1    
     5    2    3 2    
     6    2    4 am   BACKBONE|DICT|INTERRES
     7    4    5 1    
     8    4   70 1    
     9    5    6 1    
    10    5   65 1    
    11    5   71 1    
    12    6    7 1    
    13    6   72 1    
    14    6   73 1    
    15    7    8 1    
    16    8    9 1    
    17    8   74 1    
    18    8   75 1    
    19    9   10 ar   
    20    9   14 ar   
    21   10   11 ar   
    22   10   76 1    
    23   11   12 ar   
    24   11   48 1    
    25   12   13 ar   
    26   12   77 1    
    27   13   14 ar   
    28   13   15 1    
    29   14   78 1    
    30   15   16 1    
    31   15   79 1    
    32   15   80 1    
    33   16   17 1    
    34   17   18 1    
    35   17   81 1    
    36   17   82 1    
    37   18   19 1    
    38   18   22 1    
    39   18   83 1    
    40   19   20 am   BACKBONE|DICT|INTERRES
    41   19   21 2    
    42   20   84 1    
    43   20   85 1    
    44   22   23 am   BACKBONE|DICT|INTERRES
    45   22   86 1    
    46   23   24 2    
    47   23   25 1    
    48   25   26 1    
    49   25   27 1    
    50   25   87 1    
    51   26   88 1    
    52   26   89 1    
    53   26   90 1    
    54   27   28 am   BACKBONE|DICT|INTERRES
    55   27   91 1    
    56   28   29 2    
    57   28   30 1    
    58   30   31 1    
    59   30   32 1    
    60   30   92 1    
    61   31   93 1    
    62   31   94 1    
    63   31   95 1    
    64   32   33 am   BACKBONE|DICT|INTERRES
    65   32   96 1    
    66   33   34 2    
    67   33   35 1    
    68   35   36 1    
    69   35   37 1    
    70   35   97 1    
    71   36   98 1    
    72   36   99 1    
    73   36  100 1    
    74   37   38 am   BACKBONE|DICT|INTERRES
    75   37  101 1    
    76   38   39 2    
    77   38   40 1    
    78   40   41 1    
    79   40   42 1    
    80   40  102 1    
    81   41  103 1    
    82   41  104 1    
    83   41  105 1    
    84   42   43 am   BACKBONE|DICT|INTERRES
    85   42  106 1    
    86   43   44 2    
    87   43   45 1    
    88   45   46 1    
    89   45   49 1    
    90   45  107 1    
    91   46   47 1    
    92   46  108 1    
    93   46  109 1    
    94   47   48 1    
    95   48  110 1    
    96   48  111 1    
    97   49   50 am   BACKBONE|DICT|INTERRES
    98   49  112 1    
    99   50   51 2    
   100   50   52 1    
   101   52   53 1    
   102   52   54 1    
   103   52  113 1    
   104   53  114 1    
   105   53  115 1    
   106   53  116 1    
   107   54   55 am   BACKBONE|DICT|INTERRES
   108   54  117 1    
   109   55   56 2    
   110   55   57 1    
   111   57   58 1    
   112   57   59 1    
   113   57  118 1    
   114   58  119 1    
   115   58  120 1    
   116   58  121 1    
   117   59   60 am   BACKBONE|DICT|INTERRES
   118   59  122 1    
   119   60   61 2    
   120   60   62 1    
   121   62   63 1    
   122   62   64 1    
   123   62  123 1    
   124   63  124 1    
   125   63  125 1    
   126   63  126 1    
   127   64   65 am   BACKBONE|DICT|INTERRES
   128   64  127 1    
   129   65   66 2    
@<TRIPOS>SUBSTRUCTURE
     1 UNK         1 GROUP             0       ****    0 ROOT    
