@<TRIPOS>MOLECULE
3R135
127   129    1
SMALL
USER_CHARGES


@<TRIPOS>ATOM
      1 CA        -81.3367   25.0431  -71.4020 C.3       0 UNK        -0.1998 
      2 C         -81.1974   26.0506  -72.5326 C.2       0 UNK         0.4909 
      3 O         -80.2916   25.9187  -73.3567 O.2       0 UNK        -0.5240 
      4 N         -82.0914   27.0508  -72.5744 N.am      1 UNK        -0.4739 
      5 CA        -82.1298   28.1525  -73.5470 C.3       1 UNK         0.0864 
      6 C6        -80.9782   29.1762  -73.3308 C.3       11 UNK        -0.0881 
      7 S7        -81.2673   30.2524  -71.8836 S.3       11 UNK        -0.2682 
      8 C8        -80.4606   29.3601  -70.5089 C.3       11 UNK         0.0289 
      9 C9        -78.9827   29.0591  -70.7371 C.ar      11 UNK        -0.0687 
     10 C10       -78.4902   27.7804  -70.4571 C.ar      11 UNK        -0.0823 
     11 C11       -77.1449   27.4726  -70.6732 C.ar      11 UNK        -0.0830 
     12 C12       -76.2867   28.4589  -71.1674 C.ar      11 UNK        -0.1021 
     13 C13       -76.7608   29.7436  -71.4469 C.ar      11 UNK        -0.0753 
     14 C14       -78.1075   30.0417  -71.2168 C.ar      11 UNK        -0.0933 
     15 C15       -75.8268   30.7872  -72.0445 C.3       11 UNK         0.0166 
     16 S16       -74.3863   31.1053  -70.9787 S.3       11 UNK        -0.2615 
     17 C17       -73.3670   32.1652  -72.0650 C.3       11 UNK        -0.0865 
     18 CA        -72.2287   31.4193  -72.8215 C.3       10 UNK         0.0862 
     19 C         -71.1833   30.7495  -71.8893 C.2       10 UNK         0.5551 
     20 N         -70.4614   31.5345  -71.1011 N.am      10 UNK        -0.7319 
     21 O         -71.0182   29.5302  -71.8729 O.2       10 UNK        -0.5018 
     22 N         -72.7350   30.4668  -73.8155 N.am      10 UNK        -0.4509 
     23 C         -73.1914   30.7816  -75.0321 C.2       10 UNK         0.4899 
     24 O         -73.3131   31.9412  -75.4307 O.2       10 UNK        -0.4839 
     25 CA        -73.5890   29.6085  -75.9540 C.3       9 UNK         0.0222 
     26 CB        -73.5840   29.9961  -77.4477 C.3       9 UNK        -0.1966 
     27 N         -72.8096   28.3820  -75.7385 N.am      9 UNK        -0.4218 
     28 C         -71.4804   28.2197  -75.8485 C.2       9 UNK         0.5020 
     29 O         -70.6932   29.1179  -76.1483 O.2       9 UNK        -0.5274 
     30 CA        -70.9400   26.8064  -75.5854 C.3       8 UNK         0.0270 
     31 CB        -70.9703   26.4836  -74.0814 C.3       8 UNK        -0.1976 
     32 N         -71.7244   25.8094  -76.3156 N.am      8 UNK        -0.4313 
     33 C         -71.3449   25.2107  -77.4534 C.2       8 UNK         0.5041 
     34 O         -70.2419   25.3697  -77.9783 O.2       8 UNK        -0.5577 
     35 CA        -72.3659   24.2743  -78.1318 C.3       7 UNK         0.0284 
     36 CB        -72.1376   22.8198  -77.6903 C.3       7 UNK        -0.1958 
     37 N         -73.7568   24.6450  -77.8607 N.am      7 UNK        -0.4454 
     38 C         -74.3437   25.7705  -78.2942 C.2       7 UNK         0.5089 
     39 O         -73.8196   26.5472  -79.0922 O.2       7 UNK        -0.5125 
     40 CA        -75.7316   26.1149  -77.7182 C.3       6 UNK         0.0408 
     41 CB        -76.8246   25.8679  -78.7693 C.3       6 UNK        -0.1791 
     42 N         -76.0777   25.4040  -76.4797 N.am      6 UNK        -0.4762 
     43 C         -75.3993   25.4830  -75.3219 C.2       6 UNK         0.5007 
     44 O         -74.3777   26.1570  -75.1840 O.2       6 UNK        -0.5032 
     45 CA        -75.9172   24.6759  -74.1138 C.3       5 UNK         0.0783 
     46 C46       -76.7124   25.6257  -73.1939 C.3       11 UNK        -0.0857 
     47 S47       -77.2289   24.8573  -71.6218 S.3       11 UNK        -0.2512 
     48 C48       -76.6209   26.0677  -70.4002 C.3       11 UNK         0.0225 
     49 N         -76.7083   23.5028  -74.4905 N.am      5 UNK        -0.4615 
     50 C         -76.3000   22.4797  -75.2531 C.2       4 UNK         0.5053 
     51 O         -75.1481   22.3557  -75.6710 O.2       4 UNK        -0.5105 
     52 CA        -77.3730   21.4509  -75.6644 C.3       4 UNK         0.0263 
     53 CB        -77.2732   20.1948  -74.7845 C.3       4 UNK        -0.1981 
     54 N         -78.7526   21.9618  -75.6238 N.am      4 UNK        -0.4224 
     55 C         -79.2110   23.0239  -76.3051 C.2       3 UNK         0.4895 
     56 O         -78.5032   23.6834  -77.0695 O.2       3 UNK        -0.5091 
     57 CA        -80.6763   23.4413  -76.0671 C.3       3 UNK         0.0250 
     58 CB        -81.2468   22.9420  -74.7236 C.3       3 UNK        -0.1996 
     59 N         -80.7866   24.9010  -76.1155 N.am      3 UNK        -0.4254 
     60 C         -81.0544   25.6148  -77.2192 C.2       2 UNK         0.5004 
     61 O         -81.3596   25.1068  -78.3003 O.2       2 UNK        -0.5226 
     62 CA        -80.9405   27.1513  -77.1108 C.3       2 UNK         0.0269 
     63 CB        -81.8508   27.8924  -78.1144 C.3       2 UNK        -0.1926 
     64 N         -81.1228   27.6716  -75.7487 N.am      2 UNK        -0.4687 
     65 C         -82.2283   27.6040  -74.9895 C.2       1 UNK         0.5165 
     66 O         -83.2940   27.1131  -75.3666 O.2       1 UNK        -0.5079 
     67 H67       -81.7372   24.1042  -71.7822 H         1 UNK         0.0900 
     68 H68       -81.9983   25.4047  -70.6152 H         1 UNK         0.0900 
     69 H69       -80.3622   24.8425  -70.9577 H         1 UNK         0.0900 
     70 H70       -82.8331   27.0689  -71.8887 H         1 UNK         0.2959 
     71 H71       -83.0733   28.6763  -73.3828 H         1 UNK         0.1079 
     72 H72       -80.9001   29.8527  -74.1840 H         1 UNK         0.0837 
     73 H73       -80.0096   28.6806  -73.2485 H         1 UNK         0.0837 
     74 H74       -81.0168   28.4407  -70.3225 H         1 UNK         0.0685 
     75 H75       -80.5545   29.9612  -69.6039 H         1 UNK         0.0685 
     76 H76       -79.1557   27.0133  -70.0860 H         1 UNK         0.1434 
     77 H77       -75.2466   28.2256  -71.3513 H         1 UNK         0.1329 
     78 H78       -78.4835   31.0320  -71.4341 H         1 UNK         0.1335 
     79 H79       -75.4893   30.4321  -73.0185 H         1 UNK         0.0680 
     80 H80       -76.3528   31.7270  -72.2194 H         1 UNK         0.0680 
     81 H81       -72.9423   32.9589  -71.4485 H         1 UNK         0.1032 
     82 H82       -74.0121   32.6795  -72.7788 H         1 UNK         0.1032 
     83 H83       -71.6618   32.1695  -73.3768 H         1 UNK         0.0461 
     84 H84       -69.7793   31.1156  -70.4884 H         1 UNK         0.3453 
     85 H85       -70.5799   32.5354  -71.1068 H         1 UNK         0.3453 
     86 H86       -72.6164   29.4956  -73.5604 H         1 UNK         0.2984 
     87 H87       -74.6161   29.3562  -75.6864 H         1 UNK         0.0554 
     88 H88       -74.2716   30.8197  -77.6435 H         1 UNK         0.0847 
     89 H89       -73.8955   29.1616  -78.0756 H         1 UNK         0.0847 
     90 H90       -72.5943   30.3124  -77.7786 H         1 UNK         0.0847 
     91 H91       -73.3642   27.5695  -75.4701 H         1 UNK         0.3141 
     92 H92       -69.8981   26.7804  -75.9120 H         1 UNK         0.0743 
     93 H93       -70.4005   27.2205  -73.5133 H         1 UNK         0.0784 
     94 H94       -71.9852   26.4783  -73.6819 H         1 UNK         0.0784 
     95 H95       -70.5283   25.5078  -73.8796 H         1 UNK         0.0784 
     96 H96       -72.6693   25.6514  -75.9805 H         1 UNK         0.3213 
     97 H97       -72.2036   24.3365  -79.2102 H         1 UNK         0.0855 
     98 H98       -72.3085   22.6907  -76.6205 H         1 UNK         0.0814 
     99 H99       -71.1142   22.5044  -77.8984 H         1 UNK         0.0814 
    100 H100      -72.8009   22.1354  -78.2195 H         1 UNK         0.0814 
    101 H101      -74.2729   24.0522  -77.2230 H         1 UNK         0.3105 
    102 H102      -75.7222   27.1816  -77.4846 H         1 UNK         0.0547 
    103 H103      -76.6247   26.4293  -79.6830 H         1 UNK         0.0837 
    104 H104      -76.8887   24.8136  -79.0415 H         1 UNK         0.0837 
    105 H105      -77.8043   26.1785  -78.4069 H         1 UNK         0.0837 
    106 H106      -76.8976   24.8049  -76.5250 H         1 UNK         0.3020 
    107 H107      -75.0384   24.3178  -73.5731 H         1 UNK         0.1245 
    108 H108      -77.6071   25.9975  -73.6974 H         1 UNK         0.0781 
    109 H109      -76.1046   26.5039  -72.9782 H         1 UNK         0.0781 
    110 H110      -76.9305   25.7523  -69.4029 H         1 UNK         0.0836 
    111 H111      -75.5298   26.0545  -70.3992 H         1 UNK         0.0836 
    112 H112      -77.6677   23.5087  -74.1777 H         1 UNK         0.3022 
    113 H113      -77.1618   21.1654  -76.6970 H         1 UNK         0.0747 
    114 H114      -76.2664   19.7754  -74.8155 H         1 UNK         0.0793 
    115 H115      -77.9559   19.4156  -75.1240 H         1 UNK         0.0793 
    116 H116      -77.5027   20.4137  -73.7408 H         1 UNK         0.0793 
    117 H117      -79.3933   21.4754  -75.0133 H         1 UNK         0.3047 
    118 H118      -81.2717   23.0007  -76.8694 H         1 UNK         0.0822 
    119 H119      -82.2386   23.3567  -74.5409 H         1 UNK         0.0807 
    120 H120      -80.6123   23.2239  -73.8825 H         1 UNK         0.0807 
    121 H121      -81.3541   21.8568  -74.7133 H         1 UNK         0.0807 
    122 H122      -80.5416   25.3958  -75.2620 H         1 UNK         0.2946 
    123 H123      -79.9087   27.3807  -77.3819 H         1 UNK         0.1144 
    124 H124      -81.5993   27.6259  -79.1418 H         1 UNK         0.0793 
    125 H125      -81.7410   28.9733  -78.0275 H         1 UNK         0.0793 
    126 H126      -82.9028   27.6477  -77.9661 H         1 UNK         0.0793 
    127 H127      -80.2892   28.0449  -75.3163 H         1 UNK         0.2896 
@<TRIPOS>BOND
     1    1    2 1    
     2    1   67 1    
     3    1   68 1    
     4    1   69 1    
     5    2    3 2    
     6    2    4 am   BACKBONE|DICT|INTERRES
     7    4    5 1    
     8    4   70 1    
     9    5    6 1    
    10    5   65 1    
    11    5   71 1    
    12    6    7 1    
    13    6   72 1    
    14    6   73 1    
    15    7    8 1    
    16    8    9 1    
    17    8   74 1    
    18    8   75 1    
    19    9   10 ar   
    20    9   14 ar   
    21   10   11 ar   
    22   10   76 1    
    23   11   12 ar   
    24   11   48 1    
    25   12   13 ar   
    26   12   77 1    
    27   13   14 ar   
    28   13   15 1    
    29   14   78 1    
    30   15   16 1    
    31   15   79 1    
    32   15   80 1    
    33   16   17 1    
    34   17   18 1    
    35   17   81 1    
    36   17   82 1    
    37   18   19 1    
    38   18   22 1    
    39   18   83 1    
    40   19   20 am   BACKBONE|DICT|INTERRES
    41   19   21 2    
    42   20   84 1    
    43   20   85 1    
    44   22   23 am   BACKBONE|DICT|INTERRES
    45   22   86 1    
    46   23   24 2    
    47   23   25 1    
    48   25   26 1    
    49   25   27 1    
    50   25   87 1    
    51   26   88 1    
    52   26   89 1    
    53   26   90 1    
    54   27   28 am   BACKBONE|DICT|INTERRES
    55   27   91 1    
    56   28   29 2    
    57   28   30 1    
    58   30   31 1    
    59   30   32 1    
    60   30   92 1    
    61   31   93 1    
    62   31   94 1    
    63   31   95 1    
    64   32   33 am   BACKBONE|DICT|INTERRES
    65   32   96 1    
    66   33   34 2    
    67   33   35 1    
    68   35   36 1    
    69   35   37 1    
    70   35   97 1    
    71   36   98 1    
    72   36   99 1    
    73   36  100 1    
    74   37   38 am   BACKBONE|DICT|INTERRES
    75   37  101 1    
    76   38   39 2    
    77   38   40 1    
    78   40   41 1    
    79   40   42 1    
    80   40  102 1    
    81   41  103 1    
    82   41  104 1    
    83   41  105 1    
    84   42   43 am   BACKBONE|DICT|INTERRES
    85   42  106 1    
    86   43   44 2    
    87   43   45 1    
    88   45   46 1    
    89   45   49 1    
    90   45  107 1    
    91   46   47 1    
    92   46  108 1    
    93   46  109 1    
    94   47   48 1    
    95   48  110 1    
    96   48  111 1    
    97   49   50 am   BACKBONE|DICT|INTERRES
    98   49  112 1    
    99   50   51 2    
   100   50   52 1    
   101   52   53 1    
   102   52   54 1    
   103   52  113 1    
   104   53  114 1    
   105   53  115 1    
   106   53  116 1    
   107   54   55 am   BACKBONE|DICT|INTERRES
   108   54  117 1    
   109   55   56 2    
   110   55   57 1    
   111   57   58 1    
   112   57   59 1    
   113   57  118 1    
   114   58  119 1    
   115   58  120 1    
   116   58  121 1    
   117   59   60 am   BACKBONE|DICT|INTERRES
   118   59  122 1    
   119   60   61 2    
   120   60   62 1    
   121   62   63 1    
   122   62   64 1    
   123   62  123 1    
   124   63  124 1    
   125   63  125 1    
   126   63  126 1    
   127   64   65 am   BACKBONE|DICT|INTERRES
   128   64  127 1    
   129   65   66 2    
@<TRIPOS>SUBSTRUCTURE
     1 UNK         1 GROUP             0       ****    0 ROOT    
