@<TRIPOS>MOLECULE
3R135
127   129    1
SMALL
USER_CHARGES


@<TRIPOS>ATOM
      1 CA        -85.0103   31.6451  -74.9200 C.3       0 UNK        -0.1998 
      2 C         -83.6175   31.0680  -74.7156 C.2       0 UNK         0.4909 
      3 O         -82.6285   31.7404  -75.0082 O.2       0 UNK        -0.5240 
      4 N         -83.5339   29.8296  -74.2102 N.am      1 UNK        -0.4739 
      5 CA        -82.2819   29.0990  -73.9783 C.3       1 UNK         0.0864 
      6 C6        -82.5304   27.8700  -73.0625 C.3       11 UNK        -0.0881 
      7 S7        -81.0397   26.8886  -72.6846 S.3       11 UNK        -0.2682 
      8 C8        -80.4618   27.6721  -71.1542 C.3       11 UNK         0.0289 
      9 C9        -79.0459   27.2290  -70.8192 C.ar      11 UNK        -0.0687 
     10 C10       -78.8210   26.0055  -70.1811 C.ar      11 UNK        -0.0823 
     11 C11       -77.5235   25.6106  -69.8400 C.ar      11 UNK        -0.0830 
     12 C12       -76.4483   26.4541  -70.1335 C.ar      11 UNK        -0.1021 
     13 C13       -76.6589   27.6708  -70.7882 C.ar      11 UNK        -0.0753 
     14 C14       -77.9593   28.0505  -71.1340 C.ar      11 UNK        -0.0933 
     15 C15       -75.4856   28.5889  -71.0930 C.3       11 UNK         0.0166 
     16 S16       -74.3432   27.8399  -72.2911 S.3       11 UNK        -0.2615 
     17 C17       -73.2985   29.2803  -72.7025 C.3       11 UNK        -0.0865 
     18 CA        -73.7106   29.9547  -74.0391 C.3       10 UNK         0.0862 
     19 C         -72.8841   31.2521  -74.2922 C.2       10 UNK         0.5551 
     20 N         -72.1598   31.3893  -75.3977 N.am      10 UNK        -0.7319 
     21 O         -72.9052   32.1591  -73.4640 O.2       10 UNK        -0.5018 
     22 N         -73.6968   28.9956  -75.1538 N.am      10 UNK        -0.4509 
     23 C         -74.3529   29.1409  -76.3109 C.2       10 UNK         0.4899 
     24 O         -75.1203   30.0728  -76.5551 O.2       10 UNK        -0.4839 
     25 CA        -74.0768   28.0588  -77.3727 C.3       9 UNK         0.0222 
     26 CB        -74.5390   28.4672  -78.7874 C.3       9 UNK        -0.1966 
     27 N         -72.6746   27.6199  -77.3802 N.am      9 UNK        -0.4218 
     28 C         -71.5876   28.3725  -77.6236 C.2       9 UNK         0.5020 
     29 O         -71.6428   29.5768  -77.8770 O.2       9 UNK        -0.5274 
     30 CA        -70.1981   27.7057  -77.5224 C.3       8 UNK         0.0270 
     31 CB        -69.3192   28.4429  -76.4955 C.3       8 UNK        -0.1976 
     32 N         -70.2438   26.2877  -77.1587 N.am      8 UNK        -0.4313 
     33 C         -70.5905   25.2783  -77.9688 C.2       8 UNK         0.5041 
     34 O         -70.8159   25.4125  -79.1715 O.2       8 UNK        -0.5577 
     35 CA        -70.7561   23.8916  -77.3148 C.3       7 UNK         0.0284 
     36 CB        -69.5133   23.0242  -77.5730 C.3       7 UNK        -0.1958 
     37 N         -71.0233   23.9387  -75.8691 N.am      7 UNK        -0.4454 
     38 C         -72.0997   24.5010  -75.3014 C.2       7 UNK         0.5089 
     39 O         -72.9937   25.0659  -75.9351 O.2       7 UNK        -0.5125 
     40 CA        -72.1223   24.5259  -73.7668 C.3       6 UNK         0.0408 
     41 CB        -71.4953   25.8321  -73.2553 C.3       6 UNK        -0.1791 
     42 N         -73.4889   24.4056  -73.2542 N.am      6 UNK        -0.4762 
     43 C         -74.1308   23.2357  -73.1267 C.2       6 UNK         0.5007 
     44 O         -73.6254   22.1498  -73.4167 O.2       6 UNK        -0.5032 
     45 CA        -75.5625   23.2627  -72.5567 C.3       5 UNK         0.0783 
     46 C46       -75.5313   23.0987  -71.0174 C.3       11 UNK        -0.0857 
     47 S47       -77.1974   22.8930  -70.2998 S.3       11 UNK        -0.2512 
     48 C48       -77.2909   24.2854  -69.1300 C.3       11 UNK         0.0225 
     49 N         -76.3383   24.4332  -72.9819 N.am      5 UNK        -0.4615 
     50 C         -76.8106   24.6031  -74.2226 C.2       4 UNK         0.5053 
     51 O         -76.5239   23.8738  -75.1750 O.2       4 UNK        -0.5105 
     52 CA        -77.7856   25.7749  -74.4294 C.3       4 UNK         0.0263 
     53 CB        -77.0579   27.0063  -74.9858 C.3       4 UNK        -0.1981 
     54 N         -78.8833   25.4324  -75.3372 N.am      4 UNK        -0.4224 
     55 C         -79.7969   24.4725  -75.1369 C.2       3 UNK         0.4895 
     56 O         -79.8296   23.7540  -74.1358 O.2       3 UNK        -0.5091 
     57 CA        -80.8703   24.3125  -76.2320 C.3       3 UNK         0.0250 
     58 CB        -81.9674   23.3022  -75.8452 C.3       3 UNK        -0.1996 
     59 N         -81.5040   25.5953  -76.5463 N.am      3 UNK        -0.4254 
     60 C         -81.0714   26.4733  -77.4613 C.2       2 UNK         0.5004 
     61 O         -80.0762   26.2922  -78.1629 O.2       2 UNK        -0.5226 
     62 CA        -81.8604   27.7894  -77.5851 C.3       2 UNK         0.0269 
     63 CB        -83.0305   27.6307  -78.5692 C.3       2 UNK        -0.1926 
     64 N         -82.3673   28.2691  -76.2948 N.am      2 UNK        -0.4687 
     65 C         -81.5834   28.7257  -75.3057 C.2       1 UNK         0.5165 
     66 O         -80.3647   28.8667  -75.4156 O.2       1 UNK        -0.5079 
     67 H67       -85.7903   30.9491  -74.6118 H         1 UNK         0.0900 
     68 H68       -85.1660   31.8849  -75.9714 H         1 UNK         0.0900 
     69 H69       -85.1255   32.5609  -74.3408 H         1 UNK         0.0900 
     70 H70       -84.3841   29.3352  -73.9785 H         1 UNK         0.2959 
     71 H71       -81.6042   29.7735  -73.4496 H         1 UNK         0.1079 
     72 H72       -83.2555   27.1976  -73.5243 H         1 UNK         0.0837 
     73 H73       -82.9833   28.1915  -72.1231 H         1 UNK         0.0837 
     74 H74       -80.5012   28.7571  -71.2631 H         1 UNK         0.0685 
     75 H75       -81.1382   27.4167  -70.3372 H         1 UNK         0.0685 
     76 H76       -79.6585   25.3617  -69.9480 H         1 UNK         0.1434 
     77 H77       -75.4430   26.1687  -69.8552 H         1 UNK         0.1329 
     78 H78       -78.1295   28.9937  -71.6350 H         1 UNK         0.1335 
     79 H79       -75.8398   29.5433  -71.4864 H         1 UNK         0.0680 
     80 H80       -74.9481   28.8109  -70.1701 H         1 UNK         0.0680 
     81 H81       -73.3430   29.9963  -71.8794 H         1 UNK         0.1032 
     82 H82       -72.2591   28.9515  -72.7482 H         1 UNK         0.1032 
     83 H83       -74.7433   30.2891  -73.9215 H         1 UNK         0.0461 
     84 H84       -71.6380   32.2398  -75.5367 H         1 UNK         0.3453 
     85 H85       -72.1502   30.6741  -76.1138 H         1 UNK         0.3453 
     86 H86       -73.0978   28.1931  -75.0419 H         1 UNK         0.2984 
     87 H87       -74.6571   27.1844  -77.0781 H         1 UNK         0.0554 
     88 H88       -74.3412   27.6779  -79.5126 H         1 UNK         0.0847 
     89 H89       -74.0392   29.3730  -79.1321 H         1 UNK         0.0847 
     90 H90       -75.6120   28.6617  -78.8063 H         1 UNK         0.0847 
     91 H91       -72.5385   26.6469  -77.1233 H         1 UNK         0.3141 
     92 H92       -69.7277   27.7950  -78.5038 H         1 UNK         0.0743 
     93 H93       -69.1989   29.4938  -76.7628 H         1 UNK         0.0784 
     94 H94       -69.7519   28.4105  -75.4947 H         1 UNK         0.0784 
     95 H95       -68.3194   28.0110  -76.4448 H         1 UNK         0.0784 
     96 H96       -70.0561   26.0656  -76.1925 H         1 UNK         0.3213 
     97 H97       -71.6139   23.4127  -77.7921 H         1 UNK         0.0855 
     98 H98       -68.6234   23.4400  -77.0988 H         1 UNK         0.0814 
     99 H99       -69.3065   22.9475  -78.6416 H         1 UNK         0.0814 
    100 H100      -69.6517   22.0093  -77.1998 H         1 UNK         0.0814 
    101 H101      -70.3325   23.5077  -75.2704 H         1 UNK         0.3105 
    102 H102      -71.5276   23.6927  -73.3855 H         1 UNK         0.0547 
    103 H103      -71.5775   25.9185  -72.1717 H         1 UNK         0.0837 
    104 H104      -70.4341   25.8799  -73.5022 H         1 UNK         0.0837 
    105 H105      -71.9694   26.7063  -73.6996 H         1 UNK         0.0837 
    106 H106      -73.9831   25.2629  -73.0479 H         1 UNK         0.3020 
    107 H107      -76.0655   22.3830  -72.9663 H         1 UNK         0.1245 
    108 H108      -75.0196   23.9412  -70.5508 H         1 UNK         0.0781 
    109 H109      -74.9553   22.2125  -70.7427 H         1 UNK         0.0781 
    110 H110      -78.1082   24.0996  -68.4315 H         1 UNK         0.0836 
    111 H111      -76.3835   24.3224  -68.5250 H         1 UNK         0.0836 
    112 H112      -76.6300   25.0660  -72.2491 H         1 UNK         0.3022 
    113 H113      -78.2230   26.0356  -73.4638 H         1 UNK         0.0747 
    114 H114      -77.7151   27.8759  -75.0124 H         1 UNK         0.0793 
    115 H115      -76.6938   26.8287  -75.9973 H         1 UNK         0.0793 
    116 H116      -76.2003   27.2702  -74.3697 H         1 UNK         0.0793 
    117 H117      -78.9373   25.9562  -76.2007 H         1 UNK         0.3047 
    118 H118      -80.3655   23.9282  -77.1211 H         1 UNK         0.0822 
    119 H119      -81.5413   22.3168  -75.6518 H         1 UNK         0.0807 
    120 H120      -82.6986   23.1847  -76.6451 H         1 UNK         0.0807 
    121 H121      -82.5004   23.6103  -74.9447 H         1 UNK         0.0807 
    122 H122      -82.2990   25.8533  -75.9803 H         1 UNK         0.2946 
    123 H123      -81.1770   28.5430  -77.9838 H         1 UNK         0.1144 
    124 H124      -82.6758   27.2937  -79.5443 H         1 UNK         0.0793 
    125 H125      -83.5489   28.5771  -78.7246 H         1 UNK         0.0793 
    126 H126      -83.7606   26.9005  -78.2180 H         1 UNK         0.0793 
    127 H127      -83.3640   28.2194  -76.1406 H         1 UNK         0.2896 
@<TRIPOS>BOND
     1    1    2 1    
     2    1   67 1    
     3    1   68 1    
     4    1   69 1    
     5    2    3 2    
     6    2    4 am   BACKBONE|DICT|INTERRES
     7    4    5 1    
     8    4   70 1    
     9    5    6 1    
    10    5   65 1    
    11    5   71 1    
    12    6    7 1    
    13    6   72 1    
    14    6   73 1    
    15    7    8 1    
    16    8    9 1    
    17    8   74 1    
    18    8   75 1    
    19    9   10 ar   
    20    9   14 ar   
    21   10   11 ar   
    22   10   76 1    
    23   11   12 ar   
    24   11   48 1    
    25   12   13 ar   
    26   12   77 1    
    27   13   14 ar   
    28   13   15 1    
    29   14   78 1    
    30   15   16 1    
    31   15   79 1    
    32   15   80 1    
    33   16   17 1    
    34   17   18 1    
    35   17   81 1    
    36   17   82 1    
    37   18   19 1    
    38   18   22 1    
    39   18   83 1    
    40   19   20 am   BACKBONE|DICT|INTERRES
    41   19   21 2    
    42   20   84 1    
    43   20   85 1    
    44   22   23 am   BACKBONE|DICT|INTERRES
    45   22   86 1    
    46   23   24 2    
    47   23   25 1    
    48   25   26 1    
    49   25   27 1    
    50   25   87 1    
    51   26   88 1    
    52   26   89 1    
    53   26   90 1    
    54   27   28 am   BACKBONE|DICT|INTERRES
    55   27   91 1    
    56   28   29 2    
    57   28   30 1    
    58   30   31 1    
    59   30   32 1    
    60   30   92 1    
    61   31   93 1    
    62   31   94 1    
    63   31   95 1    
    64   32   33 am   BACKBONE|DICT|INTERRES
    65   32   96 1    
    66   33   34 2    
    67   33   35 1    
    68   35   36 1    
    69   35   37 1    
    70   35   97 1    
    71   36   98 1    
    72   36   99 1    
    73   36  100 1    
    74   37   38 am   BACKBONE|DICT|INTERRES
    75   37  101 1    
    76   38   39 2    
    77   38   40 1    
    78   40   41 1    
    79   40   42 1    
    80   40  102 1    
    81   41  103 1    
    82   41  104 1    
    83   41  105 1    
    84   42   43 am   BACKBONE|DICT|INTERRES
    85   42  106 1    
    86   43   44 2    
    87   43   45 1    
    88   45   46 1    
    89   45   49 1    
    90   45  107 1    
    91   46   47 1    
    92   46  108 1    
    93   46  109 1    
    94   47   48 1    
    95   48  110 1    
    96   48  111 1    
    97   49   50 am   BACKBONE|DICT|INTERRES
    98   49  112 1    
    99   50   51 2    
   100   50   52 1    
   101   52   53 1    
   102   52   54 1    
   103   52  113 1    
   104   53  114 1    
   105   53  115 1    
   106   53  116 1    
   107   54   55 am   BACKBONE|DICT|INTERRES
   108   54  117 1    
   109   55   56 2    
   110   55   57 1    
   111   57   58 1    
   112   57   59 1    
   113   57  118 1    
   114   58  119 1    
   115   58  120 1    
   116   58  121 1    
   117   59   60 am   BACKBONE|DICT|INTERRES
   118   59  122 1    
   119   60   61 2    
   120   60   62 1    
   121   62   63 1    
   122   62   64 1    
   123   62  123 1    
   124   63  124 1    
   125   63  125 1    
   126   63  126 1    
   127   64   65 am   BACKBONE|DICT|INTERRES
   128   64  127 1    
   129   65   66 2    
@<TRIPOS>SUBSTRUCTURE
     1 UNK         1 GROUP             0       ****    0 ROOT    
