@<TRIPOS>MOLECULE
3R135
127   129    1
SMALL
USER_CHARGES


@<TRIPOS>ATOM
      1 CA        -76.3648   25.7834  -69.5245 C.3       0 UNK        -0.1998 
      2 C         -77.8615   25.6807  -69.7782 C.2       0 UNK         0.4909 
      3 O         -78.5859   25.1123  -68.9608 O.2       0 UNK        -0.5240 
      4 N         -78.3287   26.2218  -70.9060 N.am      1 UNK        -0.4739 
      5 CA        -79.7224   26.2205  -71.3458 C.3       1 UNK         0.0864 
      6 C6        -80.5654   27.2671  -70.5434 C.3       11 UNK        -0.0881 
      7 S7        -82.0353   28.0212  -71.3352 S.3       11 UNK        -0.2682 
      8 C8        -81.6240   29.7970  -71.3318 C.3       11 UNK         0.0289 
      9 C9        -80.3380   30.1049  -72.0870 C.ar      11 UNK        -0.0687 
     10 C10       -80.3130   30.0817  -73.4854 C.ar      11 UNK        -0.0823 
     11 C11       -79.1333   30.3758  -74.1775 C.ar      11 UNK        -0.0830 
     12 C12       -77.9774   30.6982  -73.4599 C.ar      11 UNK        -0.1021 
     13 C13       -77.9834   30.6944  -72.0634 C.ar      11 UNK        -0.0753 
     14 C14       -79.1706   30.4163  -71.3827 C.ar      11 UNK        -0.0933 
     15 C15       -76.7029   30.9644  -71.2910 C.3       11 UNK         0.0166 
     16 S16       -75.9750   29.4053  -70.6968 S.3       11 UNK        -0.2615 
     17 C17       -74.3068   29.9581  -70.1866 C.3       11 UNK        -0.0865 
     18 CA        -73.1555   29.3804  -71.0565 C.3       10 UNK         0.0862 
     19 C         -72.8544   27.8937  -70.7121 C.2       10 UNK         0.5551 
     20 N         -72.1052   27.6500  -69.6451 N.am      10 UNK        -0.7319 
     21 O         -73.3171   26.9656  -71.3713 O.2       10 UNK        -0.5018 
     22 N         -73.4046   29.6051  -72.4860 N.am      10 UNK        -0.4509 
     23 C         -72.4940   29.5079  -73.4599 C.2       10 UNK         0.4899 
     24 O         -71.2867   29.3416  -73.2720 O.2       10 UNK        -0.4839 
     25 CA        -73.0363   29.6890  -74.8890 C.3       9 UNK         0.0222 
     26 CB        -73.0048   31.1721  -75.2925 C.3       9 UNK        -0.1966 
     27 N         -72.3166   28.9003  -75.8948 N.am      9 UNK        -0.4218 
     28 C         -72.2662   27.5623  -75.9264 C.2       9 UNK         0.5020 
     29 O         -72.7793   26.8343  -75.0768 O.2       9 UNK        -0.5274 
     30 CA        -71.5421   26.9227  -77.1143 C.3       8 UNK         0.0270 
     31 CB        -70.1378   26.4404  -76.7031 C.3       8 UNK        -0.1976 
     32 N         -72.3489   25.8057  -77.6094 N.am      8 UNK        -0.4313 
     33 C         -72.2290   25.2466  -78.8212 C.2       8 UNK         0.5041 
     34 O         -71.4118   25.6159  -79.6660 O.2       8 UNK        -0.5577 
     35 CA        -73.1830   24.0921  -79.1626 C.3       7 UNK         0.0284 
     36 CB        -72.9022   22.8574  -78.2881 C.3       7 UNK        -0.1958 
     37 N         -74.5741   24.5114  -78.9988 N.am      7 UNK        -0.4454 
     38 C         -75.3788   24.9131  -79.9940 C.2       7 UNK         0.5089 
     39 O         -75.0601   24.8905  -81.1835 O.2       7 UNK        -0.5125 
     40 CA        -76.7791   25.4381  -79.6103 C.3       6 UNK         0.0408 
     41 CB        -77.8205   24.3131  -79.7162 C.3       6 UNK        -0.1791 
     42 N         -76.8387   26.0159  -78.2669 N.am      6 UNK        -0.4762 
     43 C         -76.1520   27.0934  -77.8598 C.2       6 UNK         0.5007 
     44 O         -75.5051   27.8176  -78.6173 O.2       6 UNK        -0.5032 
     45 CA        -76.1135   27.3689  -76.3430 C.3       5 UNK         0.0783 
     46 C46       -76.8569   28.6569  -75.9248 C.3       11 UNK        -0.0857 
     47 S47       -78.6310   28.7064  -76.3402 S.3       11 UNK        -0.2512 
     48 C48       -79.1042   30.3448  -75.6994 C.3       11 UNK         0.0225 
     49 N         -76.4469   26.2106  -75.5015 N.am      5 UNK        -0.4615 
     50 C         -75.6964   25.0980  -75.4383 C.2       4 UNK         0.5053 
     51 O         -74.7335   24.8810  -76.1740 O.2       4 UNK        -0.5105 
     52 CA        -76.1062   24.0288  -74.4206 C.3       4 UNK         0.0263 
     53 CB        -75.8273   24.4973  -72.9835 C.3       4 UNK        -0.1981 
     54 N         -77.5129   23.6699  -74.5787 N.am      4 UNK        -0.4224 
     55 C         -77.9818   22.8847  -75.5601 C.2       3 UNK         0.4895 
     56 O         -77.2691   22.3278  -76.3951 O.2       3 UNK        -0.5091 
     57 CA        -79.5058   22.6903  -75.6299 C.3       3 UNK         0.0250 
     58 CB        -79.9249   21.4302  -74.8557 C.3       3 UNK        -0.1996 
     59 N         -80.2501   23.8436  -75.1201 N.am      3 UNK        -0.4254 
     60 C         -80.3063   25.0371  -75.7280 C.2       2 UNK         0.5004 
     61 O         -79.7768   25.2803  -76.8122 O.2       2 UNK        -0.5226 
     62 CA        -81.0571   26.1469  -74.9756 C.3       2 UNK         0.0269 
     63 CB        -82.5586   26.1052  -75.2991 C.3       2 UNK        -0.1926 
     64 N         -80.8680   26.0887  -73.5226 N.am      2 UNK        -0.4687 
     65 C         -79.7100   26.3247  -72.8895 C.2       1 UNK         0.5165 
     66 O         -78.6489   26.5455  -73.4847 O.2       1 UNK        -0.5079 
     67 H67       -75.9330   24.7903  -69.4047 H         1 UNK         0.0900 
     68 H68       -75.8464   26.2801  -70.3446 H         1 UNK         0.0900 
     69 H69       -76.1760   26.3520  -68.6144 H         1 UNK         0.0900 
     70 H70       -77.7022   26.6549  -71.5744 H         1 UNK         0.2959 
     71 H71       -80.1346   25.2313  -71.1341 H         1 UNK         0.1079 
     72 H72       -80.9058   26.7992  -69.6185 H         1 UNK         0.0837 
     73 H73       -79.9155   28.0737  -70.2061 H         1 UNK         0.0837 
     74 H74       -82.4485   30.3495  -71.7846 H         1 UNK         0.0685 
     75 H75       -81.5574   30.1439  -70.2994 H         1 UNK         0.0685 
     76 H76       -81.2106   29.8270  -74.0323 H         1 UNK         0.1434 
     77 H77       -77.0636   30.9274  -73.9901 H         1 UNK         0.1329 
     78 H78       -79.1764   30.4213  -70.3013 H         1 UNK         0.1335 
     79 H79       -76.9082   31.6178  -70.4417 H         1 UNK         0.0680 
     80 H80       -75.9845   31.4894  -71.9228 H         1 UNK         0.0680 
     81 H81       -74.2650   31.0479  -70.2180 H         1 UNK         0.1032 
     82 H82       -74.1641   29.7019  -69.1350 H         1 UNK         0.1032 
     83 H83       -72.2543   29.9450  -70.8080 H         1 UNK         0.0461 
     84 H84       -71.7231   28.4000  -69.0904 H         1 UNK         0.3453 
     85 H85       -71.9086   26.6934  -69.3960 H         1 UNK         0.3453 
     86 H86       -74.3775   29.7073  -72.7327 H         1 UNK         0.2984 
     87 H87       -74.0761   29.3582  -74.8991 H         1 UNK         0.0554 
     88 H88       -73.5597   31.7847  -74.5804 H         1 UNK         0.0847 
     89 H89       -73.4582   31.3292  -76.2714 H         1 UNK         0.0847 
     90 H90       -71.9852   31.5586  -75.3267 H         1 UNK         0.0847 
     91 H91       -71.8305   29.4210  -76.6106 H         1 UNK         0.3141 
     92 H92       -71.4488   27.6646  -77.9105 H         1 UNK         0.0743 
     93 H93       -70.1897   25.6670  -75.9357 H         1 UNK         0.0784 
     94 H94       -69.5887   26.0334  -77.5522 H         1 UNK         0.0784 
     95 H95       -69.5451   27.2624  -76.2994 H         1 UNK         0.0784 
     96 H96       -73.0670   25.4737  -76.9653 H         1 UNK         0.3213 
     97 H97       -73.0005   23.8060  -80.2009 H         1 UNK         0.0855 
     98 H98       -73.0696   23.0540  -77.2288 H         1 UNK         0.0814 
     99 H99       -71.8676   22.5303  -78.3990 H         1 UNK         0.0814 
    100 H100      -73.5390   22.0202  -78.5743 H         1 UNK         0.0814 
    101 H101      -74.8986   24.6031  -78.0396 H         1 UNK         0.3105 
    102 H102      -77.0458   26.2221  -80.3218 H         1 UNK         0.0547 
    103 H103      -77.8280   23.8801  -80.7173 H         1 UNK         0.0837 
    104 H104      -77.6144   23.5056  -79.0122 H         1 UNK         0.0837 
    105 H105      -78.8264   24.6828  -79.5154 H         1 UNK         0.0837 
    106 H106      -77.3871   25.5173  -77.5777 H         1 UNK         0.3020 
    107 H107      -75.0627   27.5665  -76.1406 H         1 UNK         0.1245 
    108 H108      -76.3762   29.5268  -76.3764 H         1 UNK         0.0781 
    109 H109      -76.7485   28.7761  -74.8474 H         1 UNK         0.0781 
    110 H110      -80.0882   30.6032  -76.0932 H         1 UNK         0.0836 
    111 H111      -78.4179   31.1014  -76.0831 H         1 UNK         0.0836 
    112 H112      -77.2455   26.3175  -74.8818 H         1 UNK         0.3022 
    113 H113      -75.4991   23.1391  -74.6032 H         1 UNK         0.0747 
    114 H114      -76.1245   23.7461  -72.2518 H         1 UNK         0.0793 
    115 H115      -74.7625   24.6882  -72.8405 H         1 UNK         0.0793 
    116 H116      -76.3481   25.4240  -72.7490 H         1 UNK         0.0793 
    117 H117      -78.1728   24.1247  -73.9655 H         1 UNK         0.3047 
    118 H118      -79.7714   22.5523  -76.6805 H         1 UNK         0.0822 
    119 H119      -80.9932   21.2381  -74.9580 H         1 UNK         0.0807 
    120 H120      -79.6976   21.5128  -73.7920 H         1 UNK         0.0807 
    121 H121      -79.4021   20.5499  -75.2328 H         1 UNK         0.0807 
    122 H122      -80.7283   23.7321  -74.2379 H         1 UNK         0.2946 
    123 H123      -80.6666   27.1034  -75.3218 H         1 UNK         0.1144 
    124 H124      -83.0855   26.9405  -74.8372 H         1 UNK         0.0793 
    125 H125      -83.0235   25.1812  -74.9534 H         1 UNK         0.0793 
    126 H126      -82.7266   26.1733  -76.3749 H         1 UNK         0.0793 
    127 H127      -81.6975   25.9434  -72.9639 H         1 UNK         0.2896 
@<TRIPOS>BOND
     1    1    2 1    
     2    1   67 1    
     3    1   68 1    
     4    1   69 1    
     5    2    3 2    
     6    2    4 am   BACKBONE|DICT|INTERRES
     7    4    5 1    
     8    4   70 1    
     9    5    6 1    
    10    5   65 1    
    11    5   71 1    
    12    6    7 1    
    13    6   72 1    
    14    6   73 1    
    15    7    8 1    
    16    8    9 1    
    17    8   74 1    
    18    8   75 1    
    19    9   10 ar   
    20    9   14 ar   
    21   10   11 ar   
    22   10   76 1    
    23   11   12 ar   
    24   11   48 1    
    25   12   13 ar   
    26   12   77 1    
    27   13   14 ar   
    28   13   15 1    
    29   14   78 1    
    30   15   16 1    
    31   15   79 1    
    32   15   80 1    
    33   16   17 1    
    34   17   18 1    
    35   17   81 1    
    36   17   82 1    
    37   18   19 1    
    38   18   22 1    
    39   18   83 1    
    40   19   20 am   BACKBONE|DICT|INTERRES
    41   19   21 2    
    42   20   84 1    
    43   20   85 1    
    44   22   23 am   BACKBONE|DICT|INTERRES
    45   22   86 1    
    46   23   24 2    
    47   23   25 1    
    48   25   26 1    
    49   25   27 1    
    50   25   87 1    
    51   26   88 1    
    52   26   89 1    
    53   26   90 1    
    54   27   28 am   BACKBONE|DICT|INTERRES
    55   27   91 1    
    56   28   29 2    
    57   28   30 1    
    58   30   31 1    
    59   30   32 1    
    60   30   92 1    
    61   31   93 1    
    62   31   94 1    
    63   31   95 1    
    64   32   33 am   BACKBONE|DICT|INTERRES
    65   32   96 1    
    66   33   34 2    
    67   33   35 1    
    68   35   36 1    
    69   35   37 1    
    70   35   97 1    
    71   36   98 1    
    72   36   99 1    
    73   36  100 1    
    74   37   38 am   BACKBONE|DICT|INTERRES
    75   37  101 1    
    76   38   39 2    
    77   38   40 1    
    78   40   41 1    
    79   40   42 1    
    80   40  102 1    
    81   41  103 1    
    82   41  104 1    
    83   41  105 1    
    84   42   43 am   BACKBONE|DICT|INTERRES
    85   42  106 1    
    86   43   44 2    
    87   43   45 1    
    88   45   46 1    
    89   45   49 1    
    90   45  107 1    
    91   46   47 1    
    92   46  108 1    
    93   46  109 1    
    94   47   48 1    
    95   48  110 1    
    96   48  111 1    
    97   49   50 am   BACKBONE|DICT|INTERRES
    98   49  112 1    
    99   50   51 2    
   100   50   52 1    
   101   52   53 1    
   102   52   54 1    
   103   52  113 1    
   104   53  114 1    
   105   53  115 1    
   106   53  116 1    
   107   54   55 am   BACKBONE|DICT|INTERRES
   108   54  117 1    
   109   55   56 2    
   110   55   57 1    
   111   57   58 1    
   112   57   59 1    
   113   57  118 1    
   114   58  119 1    
   115   58  120 1    
   116   58  121 1    
   117   59   60 am   BACKBONE|DICT|INTERRES
   118   59  122 1    
   119   60   61 2    
   120   60   62 1    
   121   62   63 1    
   122   62   64 1    
   123   62  123 1    
   124   63  124 1    
   125   63  125 1    
   126   63  126 1    
   127   64   65 am   BACKBONE|DICT|INTERRES
   128   64  127 1    
   129   65   66 2    
@<TRIPOS>SUBSTRUCTURE
     1 UNK         1 GROUP             0       ****    0 ROOT    
