@<TRIPOS>MOLECULE
3R135
127   129    1
SMALL
USER_CHARGES


@<TRIPOS>ATOM
      1 CA        -82.7108   27.4321  -70.3544 C.3       0 UNK        -0.1998 
      2 C         -83.0543   27.4595  -71.8361 C.2       0 UNK         0.4909 
      3 O         -84.2120   27.2541  -72.2014 O.2       0 UNK        -0.5240 
      4 N         -82.0549   27.7134  -72.6911 N.am      1 UNK        -0.4739 
      5 CA        -82.1939   27.7901  -74.1532 C.3       1 UNK         0.0864 
      6 C6        -80.9367   28.3925  -74.8321 C.3       11 UNK        -0.0881 
      7 S7        -80.4625   30.0316  -74.1876 S.3       11 UNK        -0.2682 
      8 C8        -78.6899   30.0815  -74.6382 C.3       11 UNK         0.0289 
      9 C9        -77.7280   29.4668  -73.6163 C.ar      11 UNK        -0.0687 
     10 C10       -78.1277   28.4927  -72.6918 C.ar      11 UNK        -0.0823 
     11 C11       -77.2263   27.9737  -71.7593 C.ar      11 UNK        -0.0830 
     12 C12       -75.9066   28.4313  -71.7510 C.ar      11 UNK        -0.1021 
     13 C13       -75.4840   29.3908  -72.6744 C.ar      11 UNK        -0.0753 
     14 C14       -76.3955   29.8959  -73.6073 C.ar      11 UNK        -0.0933 
     15 C15       -74.0468   29.8885  -72.6529 C.3       11 UNK         0.0166 
     16 S16       -73.9389   31.5229  -71.8599 S.3       11 UNK        -0.2615 
     17 C17       -72.1937   31.5849  -71.3280 C.3       11 UNK        -0.0865 
     18 CA        -71.2769   32.3741  -72.3103 C.3       10 UNK         0.0862 
     19 C         -69.9043   32.7608  -71.6731 C.2       10 UNK         0.5551 
     20 N         -68.8206   32.8398  -72.4362 N.am      10 UNK        -0.7319 
     21 O         -69.8215   33.0283  -70.4765 O.2       10 UNK        -0.5018 
     22 N         -71.1778   31.7464  -73.6438 N.am      10 UNK        -0.4509 
     23 C         -70.6536   30.5419  -73.9046 C.2       10 UNK         0.4899 
     24 O         -70.1986   29.7816  -73.0466 O.2       10 UNK        -0.4839 
     25 CA        -70.5880   30.1334  -75.3829 C.3       9 UNK         0.0222 
     26 CB        -69.2398   30.5486  -75.9947 C.3       9 UNK        -0.1966 
     27 N         -70.7374   28.6827  -75.4916 N.am      9 UNK        -0.4218 
     28 C         -71.9068   28.0564  -75.6580 C.2       9 UNK         0.5020 
     29 O         -72.9722   28.6368  -75.8774 O.2       9 UNK        -0.5274 
     30 CA        -71.8788   26.5288  -75.5015 C.3       8 UNK         0.0270 
     31 CB        -72.0184   26.1439  -74.0185 C.3       8 UNK        -0.1976 
     32 N         -72.9659   25.9140  -76.2632 N.am      8 UNK        -0.4313 
     33 C         -72.8843   25.5883  -77.5615 C.2       8 UNK         0.5041 
     34 O         -71.8500   25.6949  -78.2233 O.2       8 UNK        -0.5577 
     35 CA        -74.1481   25.0388  -78.2534 C.3       7 UNK         0.0284 
     36 CB        -74.0814   23.5059  -78.3529 C.3       7 UNK        -0.1958 
     37 N         -75.3945   25.4165  -77.5885 N.am      7 UNK        -0.4454 
     38 C         -75.8907   26.6589  -77.5234 C.2       7 UNK         0.5089 
     39 O         -75.4172   27.6168  -78.1345 O.2       7 UNK        -0.5125 
     40 CA        -77.1228   26.8739  -76.6235 C.3       6 UNK         0.0408 
     41 CB        -78.3908   26.9561  -77.4875 C.3       6 UNK        -0.1791 
     42 N         -77.3136   25.8464  -75.5923 N.am      6 UNK        -0.4762 
     43 C         -76.4469   25.5371  -74.6143 C.2       6 UNK         0.5007 
     44 O         -75.3477   26.0719  -74.4821 O.2       6 UNK        -0.5032 
     45 CA        -76.8396   24.3682  -73.6933 C.3       5 UNK         0.0783 
     46 C46       -77.8453   24.7871  -72.5887 C.3       11 UNK        -0.0857 
     47 S47       -76.9922   25.2920  -71.0577 S.3       11 UNK        -0.2512 
     48 C48       -77.6864   26.9435  -70.7381 C.3       11 UNK         0.0225 
     49 N         -77.3469   23.2530  -74.4947 N.am      5 UNK        -0.4615 
     50 C         -76.5759   22.3226  -75.0730 C.2       4 UNK         0.5053 
     51 O         -75.3525   22.2759  -74.9488 O.2       4 UNK        -0.5105 
     52 CA        -77.2796   21.2612  -75.9380 C.3       4 UNK         0.0263 
     53 CB        -77.5618   19.9975  -75.1098 C.3       4 UNK        -0.1981 
     54 N         -78.5301   21.7343  -76.5367 N.am      4 UNK        -0.4224 
     55 C         -78.6044   22.6556  -77.5071 C.2       3 UNK         0.4895 
     56 O         -77.6227   23.1808  -78.0315 O.2       3 UNK        -0.5091 
     57 CA        -80.0161   23.0959  -77.9341 C.3       3 UNK         0.0250 
     58 CB        -80.5615   22.1629  -79.0271 C.3       3 UNK        -0.1996 
     59 N         -80.9886   23.1869  -76.8352 N.am      3 UNK        -0.4254 
     60 C         -80.8391   23.9437  -75.7393 C.2       2 UNK         0.5004 
     61 O         -79.8082   24.5653  -75.4699 O.2       2 UNK        -0.5226 
     62 CA        -82.0154   23.9962  -74.7525 C.3       2 UNK         0.0269 
     63 CB        -81.8253   22.9529  -73.6400 C.3       2 UNK        -0.1926 
     64 N         -82.0923   25.3285  -74.1515 N.am      2 UNK        -0.4687 
     65 C         -82.5018   26.4252  -74.8056 C.2       1 UNK         0.5165 
     66 O         -83.0611   26.3926  -75.9032 O.2       1 UNK        -0.5079 
     67 H67       -81.6556   27.6378  -70.1750 H         1 UNK         0.0900 
     68 H68       -82.9419   26.4536  -69.9341 H         1 UNK         0.0900 
     69 H69       -83.2968   28.1794  -69.8200 H         1 UNK         0.0900 
     70 H70       -81.1384   27.9240  -72.3279 H         1 UNK         0.2959 
     71 H71       -83.0429   28.4429  -74.3690 H         1 UNK         0.1079 
     72 H72       -80.0900   27.7104  -74.7323 H         1 UNK         0.0837 
     73 H73       -81.1062   28.5054  -75.9050 H         1 UNK         0.0837 
     74 H74       -78.5471   29.5987  -75.6053 H         1 UNK         0.0685 
     75 H75       -78.4264   31.1305  -74.7820 H         1 UNK         0.0685 
     76 H76       -79.1448   28.1385  -72.6793 H         1 UNK         0.1434 
     77 H77       -75.2090   28.0371  -71.0247 H         1 UNK         0.1329 
     78 H78       -76.0653   30.6416  -74.3176 H         1 UNK         0.1335 
     79 H79       -73.4085   29.1728  -72.1325 H         1 UNK         0.0680 
     80 H80       -73.6657   29.9598  -73.6715 H         1 UNK         0.0680 
     81 H81       -71.8114   30.5792  -71.1503 H         1 UNK         0.1032 
     82 H82       -72.1994   32.0656  -70.3482 H         1 UNK         0.1032 
     83 H83       -71.7594   33.3360  -72.4874 H         1 UNK         0.0461 
     84 H84       -67.9410   33.1016  -72.0195 H         1 UNK         0.3453 
     85 H85       -68.8741   32.6386  -73.4212 H         1 UNK         0.3453 
     86 H86       -71.5101   32.3102  -74.4132 H         1 UNK         0.2984 
     87 H87       -71.3875   30.6358  -75.9320 H         1 UNK         0.0554 
     88 H88       -69.1707   30.2489  -77.0406 H         1 UNK         0.0847 
     89 H89       -68.3975   30.1038  -75.4628 H         1 UNK         0.0847 
     90 H90       -69.1113   31.6312  -75.9615 H         1 UNK         0.0847 
     91 H91       -69.9249   28.1342  -75.2469 H         1 UNK         0.3141 
     92 H92       -70.9218   26.1499  -75.8673 H         1 UNK         0.0743 
     93 H93       -72.9209   26.5659  -73.5743 H         1 UNK         0.0784 
     94 H94       -72.0547   25.0621  -73.8887 H         1 UNK         0.0784 
     95 H95       -71.1721   26.5132  -73.4377 H         1 UNK         0.0784 
     96 H96       -73.8698   25.8869  -75.7986 H         1 UNK         0.3213 
     97 H97       -74.1706   25.4483  -79.2655 H         1 UNK         0.0855 
     98 H98       -74.0719   23.0382  -77.3675 H         1 UNK         0.0814 
     99 H99       -73.1778   23.1871  -78.8743 H         1 UNK         0.0814 
    100 H100      -74.9317   23.1060  -78.9058 H         1 UNK         0.0814 
    101 H101      -75.9028   24.6821  -77.1146 H         1 UNK         0.3105 
    102 H102      -76.9858   27.8258  -76.1081 H         1 UNK         0.0547 
    103 H103      -78.3284   27.7848  -78.1940 H         1 UNK         0.0837 
    104 H104      -78.5359   26.0444  -78.0672 H         1 UNK         0.0837 
    105 H105      -79.2832   27.1101  -76.8841 H         1 UNK         0.0837 
    106 H106      -78.2016   25.3458  -75.6174 H         1 UNK         0.3020 
    107 H107      -75.9206   24.0299  -73.2076 H         1 UNK         0.1245 
    108 H108      -78.4780   23.9411  -72.3155 H         1 UNK         0.0781 
    109 H109      -78.5334   25.5619  -72.9320 H         1 UNK         0.0781 
    110 H110      -77.3749   27.2666  -69.7437 H         1 UNK         0.0836 
    111 H111      -78.7749   26.8770  -70.7059 H         1 UNK         0.0836 
    112 H112      -78.3350   23.2768  -74.7128 H         1 UNK         0.3022 
    113 H113      -76.5967   20.9944  -76.7478 H         1 UNK         0.0747 
    114 H114      -77.9883   19.2056  -75.7260 H         1 UNK         0.0793 
    115 H115      -76.6427   19.6049  -74.6722 H         1 UNK         0.0793 
    116 H116      -78.2535   20.1966  -74.2901 H         1 UNK         0.0793 
    117 H117      -79.3899   21.3557  -76.1670 H         1 UNK         0.3047 
    118 H118      -79.9237   24.0958  -78.3620 H         1 UNK         0.0822 
    119 H119      -81.5074   22.5291  -79.4268 H         1 UNK         0.0807 
    120 H120      -80.7232   21.1512  -78.6529 H         1 UNK         0.0807 
    121 H121      -79.8651   22.0933  -79.8642 H         1 UNK         0.0807 
    122 H122      -81.8595   22.6924  -76.9676 H         1 UNK         0.2946 
    123 H123      -82.9469   23.7915  -75.2854 H         1 UNK         0.1144 
    124 H124      -82.6494   22.9809  -72.9267 H         1 UNK         0.0793 
    125 H125      -80.8987   23.1134  -73.0871 H         1 UNK         0.0793 
    126 H126      -81.7893   21.9433  -74.0513 H         1 UNK         0.0793 
    127 H127      -81.6263   25.4546  -73.2657 H         1 UNK         0.2896 
@<TRIPOS>BOND
     1    1    2 1    
     2    1   67 1    
     3    1   68 1    
     4    1   69 1    
     5    2    3 2    
     6    2    4 am   BACKBONE|DICT|INTERRES
     7    4    5 1    
     8    4   70 1    
     9    5    6 1    
    10    5   65 1    
    11    5   71 1    
    12    6    7 1    
    13    6   72 1    
    14    6   73 1    
    15    7    8 1    
    16    8    9 1    
    17    8   74 1    
    18    8   75 1    
    19    9   10 ar   
    20    9   14 ar   
    21   10   11 ar   
    22   10   76 1    
    23   11   12 ar   
    24   11   48 1    
    25   12   13 ar   
    26   12   77 1    
    27   13   14 ar   
    28   13   15 1    
    29   14   78 1    
    30   15   16 1    
    31   15   79 1    
    32   15   80 1    
    33   16   17 1    
    34   17   18 1    
    35   17   81 1    
    36   17   82 1    
    37   18   19 1    
    38   18   22 1    
    39   18   83 1    
    40   19   20 am   BACKBONE|DICT|INTERRES
    41   19   21 2    
    42   20   84 1    
    43   20   85 1    
    44   22   23 am   BACKBONE|DICT|INTERRES
    45   22   86 1    
    46   23   24 2    
    47   23   25 1    
    48   25   26 1    
    49   25   27 1    
    50   25   87 1    
    51   26   88 1    
    52   26   89 1    
    53   26   90 1    
    54   27   28 am   BACKBONE|DICT|INTERRES
    55   27   91 1    
    56   28   29 2    
    57   28   30 1    
    58   30   31 1    
    59   30   32 1    
    60   30   92 1    
    61   31   93 1    
    62   31   94 1    
    63   31   95 1    
    64   32   33 am   BACKBONE|DICT|INTERRES
    65   32   96 1    
    66   33   34 2    
    67   33   35 1    
    68   35   36 1    
    69   35   37 1    
    70   35   97 1    
    71   36   98 1    
    72   36   99 1    
    73   36  100 1    
    74   37   38 am   BACKBONE|DICT|INTERRES
    75   37  101 1    
    76   38   39 2    
    77   38   40 1    
    78   40   41 1    
    79   40   42 1    
    80   40  102 1    
    81   41  103 1    
    82   41  104 1    
    83   41  105 1    
    84   42   43 am   BACKBONE|DICT|INTERRES
    85   42  106 1    
    86   43   44 2    
    87   43   45 1    
    88   45   46 1    
    89   45   49 1    
    90   45  107 1    
    91   46   47 1    
    92   46  108 1    
    93   46  109 1    
    94   47   48 1    
    95   48  110 1    
    96   48  111 1    
    97   49   50 am   BACKBONE|DICT|INTERRES
    98   49  112 1    
    99   50   51 2    
   100   50   52 1    
   101   52   53 1    
   102   52   54 1    
   103   52  113 1    
   104   53  114 1    
   105   53  115 1    
   106   53  116 1    
   107   54   55 am   BACKBONE|DICT|INTERRES
   108   54  117 1    
   109   55   56 2    
   110   55   57 1    
   111   57   58 1    
   112   57   59 1    
   113   57  118 1    
   114   58  119 1    
   115   58  120 1    
   116   58  121 1    
   117   59   60 am   BACKBONE|DICT|INTERRES
   118   59  122 1    
   119   60   61 2    
   120   60   62 1    
   121   62   63 1    
   122   62   64 1    
   123   62  123 1    
   124   63  124 1    
   125   63  125 1    
   126   63  126 1    
   127   64   65 am   BACKBONE|DICT|INTERRES
   128   64  127 1    
   129   65   66 2    
@<TRIPOS>SUBSTRUCTURE
     1 UNK         1 GROUP             0       ****    0 ROOT    
