@<TRIPOS>MOLECULE
3R135
127   129    1
SMALL
USER_CHARGES


@<TRIPOS>ATOM
      1 CA        -82.0016   26.3531  -69.9742 C.3       0 UNK        -0.1998 
      2 C         -82.4850   26.8410  -71.3316 C.2       0 UNK         0.4909 
      3 O         -83.6664   26.7034  -71.6491 O.2       0 UNK        -0.5240 
      4 N         -81.5758   27.4033  -72.1376 N.am      1 UNK        -0.4739 
      5 CA        -81.8473   27.8956  -73.4949 C.3       1 UNK         0.0864 
      6 C6        -80.8338   28.9971  -73.8968 C.3       11 UNK        -0.0881 
      7 S7        -81.1757   30.6111  -73.0986 S.3       11 UNK        -0.2682 
      8 C8        -80.3550   30.5358  -71.4646 C.3       11 UNK         0.0289 
      9 C9        -78.9238   30.0252  -71.5389 C.ar      11 UNK        -0.0687 
     10 C10       -78.5897   28.8065  -70.9434 C.ar      11 UNK        -0.0823 
     11 C11       -77.3225   28.2523  -71.1333 C.ar      11 UNK        -0.0830 
     12 C12       -76.3633   28.9560  -71.8672 C.ar      11 UNK        -0.1021 
     13 C13       -76.6710   30.1986  -72.4276 C.ar      11 UNK        -0.0753 
     14 C14       -77.9519   30.7325  -72.2539 C.ar      11 UNK        -0.0933 
     15 C15       -75.6562   30.9177  -73.3029 C.3       11 UNK         0.0166 
     16 S16       -74.5735   32.0356  -72.3560 S.3       11 UNK        -0.2615 
     17 C17       -73.3399   30.9035  -71.6202 C.3       11 UNK        -0.0865 
     18 CA        -72.0786   30.7290  -72.5109 C.3       10 UNK         0.0862 
     19 C         -70.9067   30.0448  -71.7450 C.2       10 UNK         0.5551 
     20 N         -70.2227   29.0530  -72.3051 N.am      10 UNK        -0.7319 
     21 O         -70.5988   30.4310  -70.6201 O.2       10 UNK        -0.5018 
     22 N         -72.4110   30.0592  -73.7776 N.am      10 UNK        -0.4509 
     23 C         -71.9313   30.3905  -74.9804 C.2       10 UNK         0.4899 
     24 O         -71.1749   31.3421  -75.1827 O.2       10 UNK        -0.4839 
     25 CA        -72.3786   29.4912  -76.1504 C.3       9 UNK         0.0222 
     26 CB        -71.5199   29.6879  -77.4171 C.3       9 UNK        -0.1966 
     27 N         -72.4526   28.0649  -75.8045 N.am      9 UNK        -0.4218 
     28 C         -71.4651   27.2874  -75.3326 C.2       9 UNK         0.5020 
     29 O         -70.3551   27.7061  -75.0010 O.2       9 UNK        -0.5274 
     30 CA        -71.7640   25.7832  -75.2027 C.3       8 UNK         0.0270 
     31 CB        -72.3160   25.4632  -73.8039 C.3       8 UNK        -0.1976 
     32 N         -72.6864   25.2862  -76.2301 N.am      8 UNK        -0.4313 
     33 C         -72.4056   25.2261  -77.5413 C.2       8 UNK         0.5041 
     34 O         -71.3054   25.5063  -78.0193 O.2       8 UNK        -0.5577 
     35 CA        -73.5434   24.7995  -78.4858 C.3       7 UNK         0.0284 
     36 CB        -73.6551   23.2680  -78.5508 C.3       7 UNK        -0.1958 
     37 N         -74.8379   25.3783  -78.1164 N.am      7 UNK        -0.4454 
     38 C         -75.1355   26.6846  -78.1815 C.2       7 UNK         0.5089 
     39 O         -74.3742   27.5407  -78.6309 O.2       7 UNK        -0.5125 
     40 CA        -76.4972   27.1194  -77.6098 C.3       6 UNK         0.0408 
     41 CB        -77.6148   26.9356  -78.6476 C.3       6 UNK        -0.1791 
     42 N         -76.8473   26.4142  -76.3745 N.am      6 UNK        -0.4762 
     43 C         -76.1477   26.4880  -75.2328 C.2       6 UNK         0.5007 
     44 O         -75.1538   27.2006  -75.0841 O.2       6 UNK        -0.5032 
     45 CA        -76.6106   25.5817  -74.0755 C.3       5 UNK         0.0783 
     46 C46       -77.8295   26.1952  -73.3522 C.3       11 UNK        -0.0857 
     47 S47       -78.0090   25.6062  -71.6321 S.3       11 UNK        -0.2512 
     48 C48       -77.0394   26.8297  -70.6763 C.3       11 UNK         0.0225 
     49 N         -76.8946   24.2236  -74.5431 N.am      5 UNK        -0.4615 
     50 C         -75.9905   23.3779  -75.0512 C.2       4 UNK         0.5053 
     51 O         -74.7874   23.6235  -75.1212 O.2       4 UNK        -0.5105 
     52 CA        -76.5335   22.0560  -75.6200 C.3       4 UNK         0.0263 
     53 CB        -76.7171   21.0205  -74.4995 C.3       4 UNK        -0.1981 
     54 N         -77.7990   22.2330  -76.3403 N.am      4 UNK        -0.4224 
     55 C         -77.9297   22.9273  -77.4811 C.2       3 UNK         0.4895 
     56 O         -76.9844   23.4375  -78.0806 O.2       3 UNK        -0.5091 
     57 CA        -79.3593   23.1306  -78.0168 C.3       3 UNK         0.0250 
     58 CB        -79.7818   21.9417  -78.8940 C.3       3 UNK        -0.1996 
     59 N         -80.3535   23.3427  -76.9573 N.am      3 UNK        -0.4254 
     60 C         -80.3324   24.3680  -76.0935 C.2       2 UNK         0.5004 
     61 O         -79.4851   25.2623  -76.1302 O.2       2 UNK        -0.5226 
     62 CA        -81.3870   24.3351  -74.9709 C.3       2 UNK         0.0269 
     63 CB        -81.1303   23.1467  -74.0255 C.3       2 UNK        -0.1926 
     64 N         -81.4077   25.5549  -74.1589 N.am      2 UNK        -0.4687 
     65 C         -81.8921   26.7477  -74.5349 C.2       1 UNK         0.5165 
     66 O         -82.3925   26.9561  -75.6414 O.2       1 UNK        -0.5079 
     67 H67       -82.3398   25.3319  -69.8004 H         1 UNK         0.0900 
     68 H68       -82.4049   26.9848  -69.1832 H         1 UNK         0.0900 
     69 H69       -80.9144   26.3622  -69.8995 H         1 UNK         0.0900 
     70 H70       -80.6180   27.4854  -71.8312 H         1 UNK         0.2959 
     71 H71       -82.8458   28.3392  -73.5069 H         1 UNK         0.1079 
     72 H72       -79.8074   28.6812  -73.7089 H         1 UNK         0.0837 
     73 H73       -80.8836   29.1827  -74.9717 H         1 UNK         0.0837 
     74 H74       -80.3543   31.5343  -71.0256 H         1 UNK         0.0685 
     75 H75       -80.9565   29.9136  -70.8004 H         1 UNK         0.0685 
     76 H76       -79.3332   28.2510  -70.3902 H         1 UNK         0.1434 
     77 H77       -75.3989   28.5060  -72.0556 H         1 UNK         0.1329 
     78 H78       -78.2110   31.6737  -72.7195 H         1 UNK         0.1335 
     79 H79       -76.1800   31.5093  -74.0553 H         1 UNK         0.0680 
     80 H80       -75.0660   30.1926  -73.8624 H         1 UNK         0.0680 
     81 H81       -73.7895   29.9399  -71.3867 H         1 UNK         0.1032 
     82 H82       -73.0652   31.3363  -70.6565 H         1 UNK         0.1032 
     83 H83       -71.7111   31.7323  -72.7340 H         1 UNK         0.0461 
     84 H84       -69.4652   28.6326  -71.7910 H         1 UNK         0.3453 
     85 H85       -70.4163   28.7451  -73.2512 H         1 UNK         0.3453 
     86 H86       -72.9938   29.2385  -73.7081 H         1 UNK         0.2984 
     87 H87       -73.3981   29.7939  -76.3933 H         1 UNK         0.0554 
     88 H88       -71.8760   29.0618  -78.2356 H         1 UNK         0.0847 
     89 H89       -70.4731   29.4404  -77.2371 H         1 UNK         0.0847 
     90 H90       -71.5572   30.7220  -77.7616 H         1 UNK         0.0847 
     91 H91       -73.3615   27.6310  -75.9367 H         1 UNK         0.3141 
     92 H92       -70.8181   25.2509  -75.3230 H         1 UNK         0.0743 
     93 H93       -71.6238   25.7917  -73.0272 H         1 UNK         0.0784 
     94 H94       -73.2693   25.9580  -73.6202 H         1 UNK         0.0784 
     95 H95       -72.4647   24.3912  -73.6724 H         1 UNK         0.0784 
     96 H96       -73.5876   24.9423  -75.9089 H         1 UNK         0.3213 
     97 H97       -73.2936   25.1617  -79.4854 H         1 UNK         0.0855 
     98 H98       -72.7098   22.8214  -78.8618 H         1 UNK         0.0814 
     99 H99       -74.4133   22.9559  -79.2693 H         1 UNK         0.0814 
    100 H100      -73.9154   22.8389  -77.5833 H         1 UNK         0.0814 
    101 H101      -75.5619   24.7314  -77.8146 H         1 UNK         0.3105 
    102 H102      -76.4314   28.1829  -77.3704 H         1 UNK         0.0547 
    103 H103      -77.4061   27.5122  -79.5495 H         1 UNK         0.0837 
    104 H104      -77.7225   25.8932  -78.9465 H         1 UNK         0.0837 
    105 H105      -78.5763   27.2733  -78.2603 H         1 UNK         0.0837 
    106 H106      -77.6940   25.8492  -76.3889 H         1 UNK         0.3020 
    107 H107      -75.7758   25.5273  -73.3733 H         1 UNK         0.1245 
    108 H108      -78.7478   25.9388  -73.8716 H         1 UNK         0.0781 
    109 H109      -77.8113   27.2820  -73.3907 H         1 UNK         0.0781 
    110 H110      -75.9784   26.5954  -70.7757 H         1 UNK         0.0836 
    111 H111      -77.2778   26.7296  -69.6166 H         1 UNK         0.0836 
    112 H112      -77.8657   23.9539  -74.5549 H         1 UNK         0.3022 
    113 H113      -75.7948   21.6696  -76.3255 H         1 UNK         0.0747 
    114 H114      -77.0273   20.0547  -74.8990 H         1 UNK         0.0793 
    115 H115      -75.7818   20.8607  -73.9610 H         1 UNK         0.0793 
    116 H116      -77.4629   21.3381  -73.7696 H         1 UNK         0.0793 
    117 H117      -78.6261   21.8323  -75.9233 H         1 UNK         0.3047 
    118 H118      -79.3489   24.0263  -78.6413 H         1 UNK         0.0822 
    119 H119      -80.7530   22.1158  -79.3577 H         1 UNK         0.0807 
    120 H120      -79.8434   21.0153  -78.3215 H         1 UNK         0.0807 
    121 H121      -79.0653   21.7791  -79.7007 H         1 UNK         0.0807 
    122 H122      -81.0790   22.6450  -76.8715 H         1 UNK         0.2946 
    123 H123      -82.3680   24.2175  -75.4369 H         1 UNK         0.1144 
    124 H124      -81.8822   23.1010  -73.2371 H         1 UNK         0.0793 
    125 H125      -80.1520   23.2138  -73.5473 H         1 UNK         0.0793 
    126 H126      -81.1718   22.1940  -74.5546 H         1 UNK         0.0793 
    127 H127      -81.0167   25.4840  -73.2318 H         1 UNK         0.2896 
@<TRIPOS>BOND
     1    1    2 1    
     2    1   67 1    
     3    1   68 1    
     4    1   69 1    
     5    2    3 2    
     6    2    4 am   BACKBONE|DICT|INTERRES
     7    4    5 1    
     8    4   70 1    
     9    5    6 1    
    10    5   65 1    
    11    5   71 1    
    12    6    7 1    
    13    6   72 1    
    14    6   73 1    
    15    7    8 1    
    16    8    9 1    
    17    8   74 1    
    18    8   75 1    
    19    9   10 ar   
    20    9   14 ar   
    21   10   11 ar   
    22   10   76 1    
    23   11   12 ar   
    24   11   48 1    
    25   12   13 ar   
    26   12   77 1    
    27   13   14 ar   
    28   13   15 1    
    29   14   78 1    
    30   15   16 1    
    31   15   79 1    
    32   15   80 1    
    33   16   17 1    
    34   17   18 1    
    35   17   81 1    
    36   17   82 1    
    37   18   19 1    
    38   18   22 1    
    39   18   83 1    
    40   19   20 am   BACKBONE|DICT|INTERRES
    41   19   21 2    
    42   20   84 1    
    43   20   85 1    
    44   22   23 am   BACKBONE|DICT|INTERRES
    45   22   86 1    
    46   23   24 2    
    47   23   25 1    
    48   25   26 1    
    49   25   27 1    
    50   25   87 1    
    51   26   88 1    
    52   26   89 1    
    53   26   90 1    
    54   27   28 am   BACKBONE|DICT|INTERRES
    55   27   91 1    
    56   28   29 2    
    57   28   30 1    
    58   30   31 1    
    59   30   32 1    
    60   30   92 1    
    61   31   93 1    
    62   31   94 1    
    63   31   95 1    
    64   32   33 am   BACKBONE|DICT|INTERRES
    65   32   96 1    
    66   33   34 2    
    67   33   35 1    
    68   35   36 1    
    69   35   37 1    
    70   35   97 1    
    71   36   98 1    
    72   36   99 1    
    73   36  100 1    
    74   37   38 am   BACKBONE|DICT|INTERRES
    75   37  101 1    
    76   38   39 2    
    77   38   40 1    
    78   40   41 1    
    79   40   42 1    
    80   40  102 1    
    81   41  103 1    
    82   41  104 1    
    83   41  105 1    
    84   42   43 am   BACKBONE|DICT|INTERRES
    85   42  106 1    
    86   43   44 2    
    87   43   45 1    
    88   45   46 1    
    89   45   49 1    
    90   45  107 1    
    91   46   47 1    
    92   46  108 1    
    93   46  109 1    
    94   47   48 1    
    95   48  110 1    
    96   48  111 1    
    97   49   50 am   BACKBONE|DICT|INTERRES
    98   49  112 1    
    99   50   51 2    
   100   50   52 1    
   101   52   53 1    
   102   52   54 1    
   103   52  113 1    
   104   53  114 1    
   105   53  115 1    
   106   53  116 1    
   107   54   55 am   BACKBONE|DICT|INTERRES
   108   54  117 1    
   109   55   56 2    
   110   55   57 1    
   111   57   58 1    
   112   57   59 1    
   113   57  118 1    
   114   58  119 1    
   115   58  120 1    
   116   58  121 1    
   117   59   60 am   BACKBONE|DICT|INTERRES
   118   59  122 1    
   119   60   61 2    
   120   60   62 1    
   121   62   63 1    
   122   62   64 1    
   123   62  123 1    
   124   63  124 1    
   125   63  125 1    
   126   63  126 1    
   127   64   65 am   BACKBONE|DICT|INTERRES
   128   64  127 1    
   129   65   66 2    
@<TRIPOS>SUBSTRUCTURE
     1 UNK         1 GROUP             0       ****    0 ROOT    
