@<TRIPOS>MOLECULE
3R135
127   129    1
SMALL
USER_CHARGES


@<TRIPOS>ATOM
      1 CA        -81.6643   24.0983  -71.9430 C.3       0 UNK        -0.1998 
      2 C         -82.2309   25.3077  -72.6702 C.2       0 UNK         0.4909 
      3 O         -83.2969   25.2144  -73.2781 O.2       0 UNK        -0.5240 
      4 N         -81.5168   26.4401  -72.6296 N.am      1 UNK        -0.4739 
      5 CA        -81.9097   27.7158  -73.2522 C.3       1 UNK         0.0864 
      6 C6        -81.3380   28.9416  -72.4892 C.3       11 UNK        -0.0881 
      7 S7        -81.7926   28.9443  -70.7173 S.3       11 UNK        -0.2682 
      8 C8        -80.4432   29.9201  -69.9580 C.3       11 UNK         0.0289 
      9 C9        -79.0408   29.3905  -70.2513 C.ar      11 UNK        -0.0687 
     10 C10       -78.7783   28.0164  -70.2831 C.ar      11 UNK        -0.0823 
     11 C11       -77.5165   27.5429  -70.6497 C.ar      11 UNK        -0.0830 
     12 C12       -76.4860   28.4494  -70.9042 C.ar      11 UNK        -0.1021 
     13 C13       -76.7253   29.8236  -70.8495 C.ar      11 UNK        -0.0753 
     14 C14       -78.0039   30.2895  -70.5265 C.ar      11 UNK        -0.0933 
     15 C15       -75.6043   30.7933  -71.1807 C.3       11 UNK         0.0166 
     16 S16       -75.2732   30.8018  -72.9690 S.3       11 UNK        -0.2615 
     17 C17       -73.8818   31.9802  -73.0602 C.3       11 UNK        -0.0865 
     18 CA        -72.5009   31.3231  -73.3324 C.3       10 UNK         0.0862 
     19 C         -71.8951   30.6011  -72.0920 C.2       10 UNK         0.5551 
     20 N         -71.2671   29.4395  -72.2356 N.am      10 UNK        -0.7319 
     21 O         -71.9738   31.1145  -70.9787 O.2       10 UNK        -0.5018 
     22 N         -72.5267   30.4954  -74.5486 N.am      10 UNK        -0.4509 
     23 C         -71.5816   30.4859  -75.4932 C.2       10 UNK         0.4899 
     24 O         -70.5980   31.2286  -75.4920 O.2       10 UNK        -0.4839 
     25 CA        -71.7731   29.4516  -76.6174 C.3       9 UNK         0.0222 
     26 CB        -70.6153   29.4540  -77.6372 C.3       9 UNK        -0.1966 
     27 N         -72.0003   28.0881  -76.1228 N.am      9 UNK        -0.4218 
     28 C         -71.2249   27.3695  -75.2942 C.2       9 UNK         0.5020 
     29 O         -70.2543   27.8252  -74.6885 O.2       9 UNK        -0.5274 
     30 CA        -71.5809   25.8806  -75.1081 C.3       8 UNK         0.0270 
     31 CB        -72.3144   25.6620  -73.7746 C.3       8 UNK        -0.1976 
     32 N         -72.3812   25.3289  -76.2072 N.am      8 UNK        -0.4313 
     33 C         -71.9505   25.1658  -77.4677 C.2       8 UNK         0.5041 
     34 O         -70.7875   25.3554  -77.8252 O.2       8 UNK        -0.5577 
     35 CA        -73.0046   24.7709  -78.5159 C.3       7 UNK         0.0284 
     36 CB        -73.1462   23.2429  -78.6129 C.3       7 UNK        -0.1958 
     37 N         -74.3089   25.3816  -78.2393 N.am      7 UNK        -0.4454 
     38 C         -74.5923   26.6784  -78.4339 C.2       7 UNK         0.5089 
     39 O         -73.8039   27.4841  -78.9272 O.2       7 UNK        -0.5125 
     40 CA        -75.9734   27.1713  -77.9678 C.3       6 UNK         0.0408 
     41 CB        -77.0097   27.0087  -79.0901 C.3       6 UNK        -0.1791 
     42 N         -76.4402   26.4909  -76.7560 N.am      6 UNK        -0.4762 
     43 C         -75.8892   26.6546  -75.5427 C.2       6 UNK         0.5007 
     44 O         -74.9649   27.4375  -75.3213 O.2       6 UNK        -0.5032 
     45 CA        -76.4158   25.7635  -74.3977 C.3       5 UNK         0.0783 
     46 C46       -77.6022   26.4369  -73.6729 C.3       11 UNK        -0.0857 
     47 S47       -78.2340   25.4315  -72.2805 S.3       11 UNK        -0.2512 
     48 C48       -77.2891   26.0551  -70.8514 C.3       11 UNK         0.0225 
     49 N         -76.7526   24.4083  -74.8385 N.am      5 UNK        -0.4615 
     50 C         -75.9167   23.5184  -75.3787 C.2       4 UNK         0.5053 
     51 O         -74.7313   23.7610  -75.6007 O.2       4 UNK        -0.5105 
     52 CA        -76.4918   22.1427  -75.7708 C.3       4 UNK         0.0263 
     53 CB        -76.3487   21.1357  -74.6135 C.3       4 UNK        -0.1981 
     54 N         -77.8682   22.1858  -76.2955 N.am      4 UNK        -0.4224 
     55 C         -79.0020   22.5036  -75.6527 C.2       3 UNK         0.4895 
     56 O         -79.0759   22.7449  -74.4473 O.2       3 UNK        -0.5091 
     57 CA        -80.2577   22.6719  -76.5224 C.3       3 UNK         0.0250 
     58 CB        -81.3854   21.7416  -76.0451 C.3       3 UNK        -0.1996 
     59 N         -80.7341   24.0589  -76.5038 N.am      3 UNK        -0.4254 
     60 C         -80.0223   25.1300  -76.8900 C.2       2 UNK         0.5004 
     61 O         -78.8712   25.0764  -77.3214 O.2       2 UNK        -0.5226 
     62 CA        -80.6979   26.4931  -76.7273 C.3       2 UNK         0.0269 
     63 CB        -81.8640   26.6570  -77.7230 C.3       2 UNK        -0.1926 
     64 N         -81.1402   26.6449  -75.3426 N.am      2 UNK        -0.4687 
     65 C         -81.5528   27.7767  -74.7581 C.2       1 UNK         0.5165 
     66 O         -81.6426   28.8488  -75.3583 O.2       1 UNK        -0.5079 
     67 H67       -81.1970   23.4171  -72.6541 H         1 UNK         0.0900 
     68 H68       -80.9171   24.3859  -71.2038 H         1 UNK         0.0900 
     69 H69       -82.4583   23.5614  -71.4248 H         1 UNK         0.0900 
     70 H70       -80.6303   26.4490  -72.1436 H         1 UNK         0.2959 
     71 H71       -82.9986   27.7912  -73.2070 H         1 UNK         0.1079 
     72 H72       -81.7088   29.8729  -72.9217 H         1 UNK         0.0837 
     73 H73       -80.2528   28.9709  -72.5969 H         1 UNK         0.0837 
     74 H74       -80.5900   29.9388  -68.8775 H         1 UNK         0.0685 
     75 H75       -80.5381   30.9515  -70.3013 H         1 UNK         0.0685 
     76 H76       -79.5718   27.3100  -70.0829 H         1 UNK         0.1434 
     77 H77       -75.5071   28.0908  -71.1931 H         1 UNK         0.1329 
     78 H78       -78.1955   31.3538  -70.5075 H         1 UNK         0.1335 
     79 H79       -74.7017   30.5038  -70.6408 H         1 UNK         0.0680 
     80 H80       -75.8569   31.8026  -70.8521 H         1 UNK         0.0680 
     81 H81       -73.8497   32.5961  -72.1594 H         1 UNK         0.1032 
     82 H82       -74.1045   32.6774  -73.8692 H         1 UNK         0.1032 
     83 H83       -71.8161   32.1554  -73.5041 H         1 UNK         0.0461 
     84 H84       -70.8729   28.9937  -71.4229 H         1 UNK         0.3453 
     85 H85       -71.1192   29.0361  -73.1518 H         1 UNK         0.3453 
     86 H86       -73.2903   29.8352  -74.6102 H         1 UNK         0.2984 
     87 H87       -72.6812   29.7387  -77.1496 H         1 UNK         0.0554 
     88 H88       -70.4907   30.4393  -78.0880 H         1 UNK         0.0847 
     89 H89       -70.8025   28.7487  -78.4473 H         1 UNK         0.0847 
     90 H90       -69.6665   29.1846  -77.1716 H         1 UNK         0.0847 
     91 H91       -72.8188   27.6256  -76.4959 H         1 UNK         0.3141 
     92 H92       -70.6422   25.3237  -75.0744 H         1 UNK         0.0743 
     93 H93       -71.6850   25.9577  -72.9341 H         1 UNK         0.0784 
     94 H94       -73.2283   26.2515  -73.7135 H         1 UNK         0.0784 
     95 H95       -72.5779   24.6140  -73.6300 H         1 UNK         0.0784 
     96 H96       -73.3294   25.0361  -75.9858 H         1 UNK         0.3213 
     97 H97       -72.6576   25.1366  -79.4851 H         1 UNK         0.0855 
     98 H98       -73.4621   22.7981  -77.6696 H         1 UNK         0.0814 
     99 H99       -72.1938   22.7841  -78.8819 H         1 UNK         0.0814 
    100 H100      -73.8687   22.9585  -79.3780 H         1 UNK         0.0814 
    101 H101      -75.0001   24.8020  -77.7851 H         1 UNK         0.3105 
    102 H102      -75.8859   28.2366  -77.7432 H         1 UNK         0.0547 
    103 H103      -77.1606   25.9609  -79.3530 H         1 UNK         0.0837 
    104 H104      -77.9755   27.4230  -78.8012 H         1 UNK         0.0837 
    105 H105      -76.6916   27.5297  -79.9941 H         1 UNK         0.0837 
    106 H106      -77.2196   25.8442  -76.8668 H         1 UNK         0.3020 
    107 H107      -75.5993   25.6654  -73.6798 H         1 UNK         0.1245 
    108 H108      -78.4287   26.5878  -74.3688 H         1 UNK         0.0781 
    109 H109      -77.3275   27.4332  -73.3256 H         1 UNK         0.0781 
    110 H110      -76.2306   25.8340  -70.9970 H         1 UNK         0.0836 
    111 H111      -77.5972   25.5151  -69.9551 H         1 UNK         0.0836 
    112 H112      -77.6962   24.0920  -74.6357 H         1 UNK         0.3022 
    113 H113      -75.8765   21.7792  -76.5954 H         1 UNK         0.0747 
    114 H114      -76.7078   20.1475  -74.9006 H         1 UNK         0.0793 
    115 H115      -75.3032   21.0291  -74.3212 H         1 UNK         0.0793 
    116 H116      -76.8996   21.4491  -73.7262 H         1 UNK         0.0793 
    117 H117      -77.9334   22.0609  -77.2966 H         1 UNK         0.3047 
    118 H118      -80.0158   22.4159  -77.5561 H         1 UNK         0.0822 
    119 H119      -82.2597   21.8113  -76.6926 H         1 UNK         0.0807 
    120 H120      -81.7011   21.9775  -75.0277 H         1 UNK         0.0807 
    121 H121      -81.0607   20.7002  -76.0517 H         1 UNK         0.0807 
    122 H122      -81.6743   24.2032  -76.1656 H         1 UNK         0.2946 
    123 H123      -79.9485   27.2603  -76.9354 H         1 UNK         0.1144 
    124 H124      -82.2589   27.6727  -77.7135 H         1 UNK         0.0793 
    125 H125      -82.6881   25.9784  -77.5011 H         1 UNK         0.0793 
    126 H126      -81.5366   26.4532  -78.7436 H         1 UNK         0.0793 
    127 H127      -81.0647   25.8234  -74.7585 H         1 UNK         0.2896 
@<TRIPOS>BOND
     1    1    2 1    
     2    1   67 1    
     3    1   68 1    
     4    1   69 1    
     5    2    3 2    
     6    2    4 am   BACKBONE|DICT|INTERRES
     7    4    5 1    
     8    4   70 1    
     9    5    6 1    
    10    5   65 1    
    11    5   71 1    
    12    6    7 1    
    13    6   72 1    
    14    6   73 1    
    15    7    8 1    
    16    8    9 1    
    17    8   74 1    
    18    8   75 1    
    19    9   10 ar   
    20    9   14 ar   
    21   10   11 ar   
    22   10   76 1    
    23   11   12 ar   
    24   11   48 1    
    25   12   13 ar   
    26   12   77 1    
    27   13   14 ar   
    28   13   15 1    
    29   14   78 1    
    30   15   16 1    
    31   15   79 1    
    32   15   80 1    
    33   16   17 1    
    34   17   18 1    
    35   17   81 1    
    36   17   82 1    
    37   18   19 1    
    38   18   22 1    
    39   18   83 1    
    40   19   20 am   BACKBONE|DICT|INTERRES
    41   19   21 2    
    42   20   84 1    
    43   20   85 1    
    44   22   23 am   BACKBONE|DICT|INTERRES
    45   22   86 1    
    46   23   24 2    
    47   23   25 1    
    48   25   26 1    
    49   25   27 1    
    50   25   87 1    
    51   26   88 1    
    52   26   89 1    
    53   26   90 1    
    54   27   28 am   BACKBONE|DICT|INTERRES
    55   27   91 1    
    56   28   29 2    
    57   28   30 1    
    58   30   31 1    
    59   30   32 1    
    60   30   92 1    
    61   31   93 1    
    62   31   94 1    
    63   31   95 1    
    64   32   33 am   BACKBONE|DICT|INTERRES
    65   32   96 1    
    66   33   34 2    
    67   33   35 1    
    68   35   36 1    
    69   35   37 1    
    70   35   97 1    
    71   36   98 1    
    72   36   99 1    
    73   36  100 1    
    74   37   38 am   BACKBONE|DICT|INTERRES
    75   37  101 1    
    76   38   39 2    
    77   38   40 1    
    78   40   41 1    
    79   40   42 1    
    80   40  102 1    
    81   41  103 1    
    82   41  104 1    
    83   41  105 1    
    84   42   43 am   BACKBONE|DICT|INTERRES
    85   42  106 1    
    86   43   44 2    
    87   43   45 1    
    88   45   46 1    
    89   45   49 1    
    90   45  107 1    
    91   46   47 1    
    92   46  108 1    
    93   46  109 1    
    94   47   48 1    
    95   48  110 1    
    96   48  111 1    
    97   49   50 am   BACKBONE|DICT|INTERRES
    98   49  112 1    
    99   50   51 2    
   100   50   52 1    
   101   52   53 1    
   102   52   54 1    
   103   52  113 1    
   104   53  114 1    
   105   53  115 1    
   106   53  116 1    
   107   54   55 am   BACKBONE|DICT|INTERRES
   108   54  117 1    
   109   55   56 2    
   110   55   57 1    
   111   57   58 1    
   112   57   59 1    
   113   57  118 1    
   114   58  119 1    
   115   58  120 1    
   116   58  121 1    
   117   59   60 am   BACKBONE|DICT|INTERRES
   118   59  122 1    
   119   60   61 2    
   120   60   62 1    
   121   62   63 1    
   122   62   64 1    
   123   62  123 1    
   124   63  124 1    
   125   63  125 1    
   126   63  126 1    
   127   64   65 am   BACKBONE|DICT|INTERRES
   128   64  127 1    
   129   65   66 2    
@<TRIPOS>SUBSTRUCTURE
     1 UNK         1 GROUP             0       ****    0 ROOT    
