@<TRIPOS>MOLECULE
3R135
127   129    1
SMALL
USER_CHARGES


@<TRIPOS>ATOM
      1 CA        -83.7046   25.2072  -74.1504 C.3       0 UNK        -0.1998 
      2 C         -82.6477   25.8266  -75.0516 C.2       0 UNK         0.4909 
      3 O         -82.7742   25.7529  -76.2736 O.2       0 UNK        -0.5240 
      4 N         -81.6087   26.4256  -74.4513 N.am      1 UNK        -0.4739 
      5 CA        -80.4699   27.1002  -75.0910 C.3       1 UNK         0.0864 
      6 C6        -79.5184   27.6727  -74.0082 C.3       11 UNK        -0.0881 
      7 S7        -78.4637   29.0337  -74.6111 S.3       11 UNK        -0.2682 
      8 C8        -78.0983   29.9312  -73.0631 C.3       11 UNK         0.0289 
      9 C9        -77.0133   29.2447  -72.2422 C.ar      11 UNK        -0.0687 
     10 C10       -77.3147   28.1122  -71.4805 C.ar      11 UNK        -0.0823 
     11 C11       -76.3113   27.4351  -70.7806 C.ar      11 UNK        -0.0830 
     12 C12       -75.0124   27.9507  -70.7746 C.ar      11 UNK        -0.1021 
     13 C13       -74.7062   29.1110  -71.4904 C.ar      11 UNK        -0.0753 
     14 C14       -75.7051   29.7403  -72.2409 C.ar      11 UNK        -0.0933 
     15 C15       -73.2921   29.6702  -71.4670 C.3       11 UNK         0.0166 
     16 S16       -73.1873   31.1709  -70.4446 S.3       11 UNK        -0.2615 
     17 C17       -71.3865   31.4741  -70.4324 C.3       11 UNK        -0.0865 
     18 CA        -70.9511   32.6579  -71.3486 C.3       10 UNK         0.0862 
     19 C         -69.4731   33.0945  -71.0986 C.2       10 UNK         0.5551 
     20 N         -68.7459   33.5699  -72.1026 N.am      10 UNK        -0.7319 
     21 O         -68.9844   33.0348  -69.9727 O.2       10 UNK        -0.5018 
     22 N         -71.3000   32.4599  -72.7703 N.am      10 UNK        -0.4509 
     23 C         -70.8388   31.4851  -73.5637 C.2       10 UNK         0.4899 
     24 O         -70.0565   30.6039  -73.2006 O.2       10 UNK        -0.4839 
     25 CA        -71.3132   31.5096  -75.0230 C.3       9 UNK         0.0222 
     26 CB        -70.2311   32.1166  -75.9312 C.3       9 UNK        -0.1966 
     27 N         -71.5987   30.1427  -75.4572 N.am      9 UNK        -0.4218 
     28 C         -72.7962   29.5553  -75.3556 C.2       9 UNK         0.5020 
     29 O         -73.8216   30.1418  -75.0011 O.2       9 UNK        -0.5274 
     30 CA        -72.8336   28.0440  -75.6506 C.3       8 UNK         0.0270 
     31 CB        -72.4600   27.2466  -74.3891 C.3       8 UNK        -0.1976 
     32 N         -74.1440   27.5893  -76.1178 N.am      8 UNK        -0.4313 
     33 C         -74.7422   27.9893  -77.2476 C.2       8 UNK         0.5041 
     34 O         -74.2166   28.7410  -78.0726 O.2       8 UNK        -0.5577 
     35 CA        -76.1576   27.4304  -77.4961 C.3       7 UNK         0.0284 
     36 CB        -76.7119   27.7974  -78.8897 C.3       7 UNK        -0.1958 
     37 N         -76.2542   25.9841  -77.2511 N.am      7 UNK        -0.4454 
     38 C         -75.5348   25.0109  -77.8349 C.2       7 UNK         0.5089 
     39 O         -74.6991   25.2091  -78.7178 O.2       7 UNK        -0.5125 
     40 CA        -75.8063   23.5664  -77.3615 C.3       6 UNK         0.0408 
     41 CB        -74.5719   22.6528  -77.5171 C.3       6 UNK        -0.1791 
     42 N         -76.3529   23.4750  -76.0002 N.am      6 UNK        -0.4762 
     43 C         -75.7687   23.8718  -74.8569 C.2       6 UNK         0.5007 
     44 O         -74.6507   24.3862  -74.8116 O.2       6 UNK        -0.5032 
     45 CA        -76.5776   23.7056  -73.5534 C.3       5 UNK         0.0783 
     46 C46       -76.4279   24.9577  -72.6468 C.3       11 UNK        -0.0857 
     47 S47       -77.4367   24.8942  -71.1216 S.3       11 UNK        -0.2512 
     48 C48       -76.6163   26.1298  -70.0544 C.3       11 UNK         0.0225 
     49 N         -77.9858   23.4095  -73.8464 N.am      5 UNK        -0.4615 
     50 C         -78.6459   22.3296  -73.4142 C.2       4 UNK         0.5053 
     51 O         -78.1090   21.3716  -72.8573 O.2       4 UNK        -0.5105 
     52 CA        -80.1673   22.3295  -73.6015 C.3       4 UNK         0.0263 
     53 CB        -80.8179   23.3362  -72.6369 C.3       4 UNK        -0.1981 
     54 N         -80.5640   22.6415  -74.9784 N.am      4 UNK        -0.4224 
     55 C         -81.1407   21.7623  -75.8119 C.2       3 UNK         0.4895 
     56 O         -81.3140   20.5743  -75.5364 O.2       3 UNK        -0.5091 
     57 CA        -81.6488   22.2756  -77.1722 C.3       3 UNK         0.0250 
     58 CB        -83.1866   22.3009  -77.1975 C.3       3 UNK        -0.1996 
     59 N         -81.1517   23.6082  -77.5176 N.am      3 UNK        -0.4254 
     60 C         -79.9931   23.8378  -78.1488 C.2       2 UNK         0.5004 
     61 O         -79.2186   22.9508  -78.5056 O.2       2 UNK        -0.5226 
     62 CA        -79.6217   25.3079  -78.4083 C.3       2 UNK         0.0269 
     63 CB        -80.1790   25.7663  -79.7655 C.3       2 UNK        -0.1926 
     64 N         -80.0788   26.2283  -77.3604 N.am      2 UNK        -0.4687 
     65 C         -79.7309   26.1598  -76.0680 C.2       1 UNK         0.5165 
     66 O         -78.9162   25.3439  -75.6303 O.2       1 UNK        -0.5079 
     67 H67       -84.6898   25.5940  -74.4094 H         1 UNK         0.0900 
     68 H68       -83.7200   24.1253  -74.2765 H         1 UNK         0.0900 
     69 H69       -83.5229   25.4242  -73.0980 H         1 UNK         0.0900 
     70 H70       -81.5901   26.4363  -73.4419 H         1 UNK         0.2959 
     71 H71       -80.8806   27.9350  -75.6631 H         1 UNK         0.1079 
     72 H72       -78.8938   26.8920  -73.5714 H         1 UNK         0.0837 
     73 H73       -80.1114   28.0716  -73.1838 H         1 UNK         0.0837 
     74 H74       -79.0059   30.0417  -72.4681 H         1 UNK         0.0685 
     75 H75       -77.7842   30.9438  -73.3208 H         1 UNK         0.0685 
     76 H76       -78.3234   27.7259  -71.4646 H         1 UNK         0.1434 
     77 H77       -74.2349   27.4443  -70.2189 H         1 UNK         0.1329 
     78 H78       -75.4596   30.6204  -72.8199 H         1 UNK         0.1335 
     79 H79       -72.5920   28.9227  -71.0905 H         1 UNK         0.0680 
     80 H80       -72.9775   29.9037  -72.4813 H         1 UNK         0.0680 
     81 H81       -71.1202   31.6835  -69.3949 H         1 UNK         0.1032 
     82 H82       -70.8463   30.5623  -70.6905 H         1 UNK         0.1032 
     83 H83       -71.5347   33.5249  -71.0369 H         1 UNK         0.0461 
     84 H84       -67.7961   33.8603  -71.9308 H         1 UNK         0.3453 
     85 H85       -69.1367   33.6386  -73.0279 H         1 UNK         0.3453 
     86 H86       -71.9299   33.1468  -73.1600 H         1 UNK         0.2984 
     87 H87       -72.2132   32.1233  -75.1036 H         1 UNK         0.0554 
     88 H88       -70.0173   33.1481  -75.6485 H         1 UNK         0.0847 
     89 H89       -70.5499   32.1279  -76.9737 H         1 UNK         0.0847 
     90 H90       -69.2933   31.5620  -75.8737 H         1 UNK         0.0847 
     91 H91       -70.7965   29.5745  -75.6904 H         1 UNK         0.3141 
     92 H92       -72.1071   27.8253  -76.4360 H         1 UNK         0.0743 
     93 H93       -71.4868   27.5510  -74.0013 H         1 UNK         0.0784 
     94 H94       -72.4051   26.1777  -74.5974 H         1 UNK         0.0784 
     95 H95       -73.1892   27.3933  -73.5909 H         1 UNK         0.0784 
     96 H96       -74.6376   26.9477  -75.5139 H         1 UNK         0.3213 
     97 H97       -76.7989   27.9106  -76.7571 H         1 UNK         0.0855 
     98 H98       -76.1457   27.3229  -79.6914 H         1 UNK         0.0814 
     99 H99       -76.6692   28.8745  -79.0559 H         1 UNK         0.0814 
    100 H100      -77.7553   27.5074  -78.9927 H         1 UNK         0.0814 
    101 H101      -76.9211   25.7001  -76.5427 H         1 UNK         0.3105 
    102 H102      -76.5812   23.1785  -78.0230 H         1 UNK         0.0547 
    103 H103      -74.7853   21.6366  -77.1866 H         1 UNK         0.0837 
    104 H104      -73.7202   23.0212  -76.9446 H         1 UNK         0.0837 
    105 H105      -74.2582   22.5918  -78.5599 H         1 UNK         0.0837 
    106 H106      -77.2845   23.0889  -75.9299 H         1 UNK         0.3020 
    107 H107      -76.1198   22.8628  -73.0310 H         1 UNK         0.1245 
    108 H108      -76.7074   25.8575  -73.1980 H         1 UNK         0.0781 
    109 H109      -75.3835   25.0905  -72.3574 H         1 UNK         0.0781 
    110 H110      -75.7018   25.6865  -69.6573 H         1 UNK         0.0836 
    111 H111      -77.2555   26.3388  -69.1957 H         1 UNK         0.0836 
    112 H112      -78.4818   24.1449  -74.3441 H         1 UNK         0.3022 
    113 H113      -80.5239   21.3369  -73.3178 H         1 UNK         0.0747 
    114 H114      -81.9050   23.2881  -72.6896 H         1 UNK         0.0793 
    115 H115      -80.5366   23.1221  -71.6047 H         1 UNK         0.0793 
    116 H116      -80.5104   24.3605  -72.8471 H         1 UNK         0.0793 
    117 H117      -80.3985   23.5820  -75.3077 H         1 UNK         0.3047 
    118 H118      -81.3156   21.5614  -77.9287 H         1 UNK         0.0822 
    119 H119      -83.5609   22.5918  -78.1791 H         1 UNK         0.0807 
    120 H120      -83.5932   22.9987  -76.4655 H         1 UNK         0.0807 
    121 H121      -83.5997   21.3162  -76.9744 H         1 UNK         0.0807 
    122 H122      -81.7282   24.4010  -77.2454 H         1 UNK         0.2946 
    123 H123      -78.5350   25.3529  -78.4547 H         1 UNK         0.1144 
    124 H124      -79.8625   26.7808  -80.0070 H         1 UNK         0.0793 
    125 H125      -81.2694   25.7432  -79.7820 H         1 UNK         0.0793 
    126 H126      -79.8270   25.1191  -80.5703 H         1 UNK         0.0793 
    127 H127      -80.8042   26.8804  -77.6247 H         1 UNK         0.2896 
@<TRIPOS>BOND
     1    1    2 1    
     2    1   67 1    
     3    1   68 1    
     4    1   69 1    
     5    2    3 2    
     6    2    4 am   BACKBONE|DICT|INTERRES
     7    4    5 1    
     8    4   70 1    
     9    5    6 1    
    10    5   65 1    
    11    5   71 1    
    12    6    7 1    
    13    6   72 1    
    14    6   73 1    
    15    7    8 1    
    16    8    9 1    
    17    8   74 1    
    18    8   75 1    
    19    9   10 ar   
    20    9   14 ar   
    21   10   11 ar   
    22   10   76 1    
    23   11   12 ar   
    24   11   48 1    
    25   12   13 ar   
    26   12   77 1    
    27   13   14 ar   
    28   13   15 1    
    29   14   78 1    
    30   15   16 1    
    31   15   79 1    
    32   15   80 1    
    33   16   17 1    
    34   17   18 1    
    35   17   81 1    
    36   17   82 1    
    37   18   19 1    
    38   18   22 1    
    39   18   83 1    
    40   19   20 am   BACKBONE|DICT|INTERRES
    41   19   21 2    
    42   20   84 1    
    43   20   85 1    
    44   22   23 am   BACKBONE|DICT|INTERRES
    45   22   86 1    
    46   23   24 2    
    47   23   25 1    
    48   25   26 1    
    49   25   27 1    
    50   25   87 1    
    51   26   88 1    
    52   26   89 1    
    53   26   90 1    
    54   27   28 am   BACKBONE|DICT|INTERRES
    55   27   91 1    
    56   28   29 2    
    57   28   30 1    
    58   30   31 1    
    59   30   32 1    
    60   30   92 1    
    61   31   93 1    
    62   31   94 1    
    63   31   95 1    
    64   32   33 am   BACKBONE|DICT|INTERRES
    65   32   96 1    
    66   33   34 2    
    67   33   35 1    
    68   35   36 1    
    69   35   37 1    
    70   35   97 1    
    71   36   98 1    
    72   36   99 1    
    73   36  100 1    
    74   37   38 am   BACKBONE|DICT|INTERRES
    75   37  101 1    
    76   38   39 2    
    77   38   40 1    
    78   40   41 1    
    79   40   42 1    
    80   40  102 1    
    81   41  103 1    
    82   41  104 1    
    83   41  105 1    
    84   42   43 am   BACKBONE|DICT|INTERRES
    85   42  106 1    
    86   43   44 2    
    87   43   45 1    
    88   45   46 1    
    89   45   49 1    
    90   45  107 1    
    91   46   47 1    
    92   46  108 1    
    93   46  109 1    
    94   47   48 1    
    95   48  110 1    
    96   48  111 1    
    97   49   50 am   BACKBONE|DICT|INTERRES
    98   49  112 1    
    99   50   51 2    
   100   50   52 1    
   101   52   53 1    
   102   52   54 1    
   103   52  113 1    
   104   53  114 1    
   105   53  115 1    
   106   53  116 1    
   107   54   55 am   BACKBONE|DICT|INTERRES
   108   54  117 1    
   109   55   56 2    
   110   55   57 1    
   111   57   58 1    
   112   57   59 1    
   113   57  118 1    
   114   58  119 1    
   115   58  120 1    
   116   58  121 1    
   117   59   60 am   BACKBONE|DICT|INTERRES
   118   59  122 1    
   119   60   61 2    
   120   60   62 1    
   121   62   63 1    
   122   62   64 1    
   123   62  123 1    
   124   63  124 1    
   125   63  125 1    
   126   63  126 1    
   127   64   65 am   BACKBONE|DICT|INTERRES
   128   64  127 1    
   129   65   66 2    
@<TRIPOS>SUBSTRUCTURE
     1 UNK         1 GROUP             0       ****    0 ROOT    
