@<TRIPOS>MOLECULE
3R135
127   129    1
SMALL
USER_CHARGES


@<TRIPOS>ATOM
      1 CA        -83.4916   23.9823  -70.3217 C.3       0 UNK        -0.1998 
      2 C         -82.9132   25.1226  -71.1454 C.2       0 UNK         0.4909 
      3 O         -83.6669   25.9216  -71.7030 O.2       0 UNK        -0.5240 
      4 N         -81.5800   25.2027  -71.2376 N.am      1 UNK        -0.4739 
      5 CA        -80.8301   26.2290  -71.9743 C.3       1 UNK         0.0864 
      6 C6        -79.4079   26.4176  -71.3875 C.3       11 UNK        -0.0881 
      7 S7        -79.4312   27.1120  -69.6968 S.3       11 UNK        -0.2682 
      8 C8        -79.8368   28.8704  -69.9853 C.3       11 UNK         0.0289 
      9 C9        -78.8920   29.5238  -70.9829 C.ar      11 UNK        -0.0687 
     10 C10       -79.2942   29.7174  -72.3087 C.ar      11 UNK        -0.0823 
     11 C11       -78.3991   30.2283  -73.2515 C.ar      11 UNK        -0.0830 
     12 C12       -77.1130   30.6022  -72.8481 C.ar      11 UNK        -0.1021 
     13 C13       -76.7011   30.4123  -71.5266 C.ar      11 UNK        -0.0753 
     14 C14       -77.5972   29.8802  -70.5951 C.ar      11 UNK        -0.0933 
     15 C15       -75.2728   30.7351  -71.1210 C.3       11 UNK         0.0166 
     16 S16       -74.1495   29.3729  -71.5685 S.3       11 UNK        -0.2615 
     17 C17       -72.5774   30.0038  -70.8931 C.3       11 UNK        -0.0865 
     18 CA        -71.7424   30.7803  -71.9444 C.3       10 UNK         0.0862 
     19 C         -70.5574   31.5300  -71.2654 C.2       10 UNK         0.5551 
     20 N         -69.3041   31.2216  -71.5768 N.am      10 UNK        -0.7319 
     21 O         -70.7832   32.4145  -70.4431 O.2       10 UNK        -0.5018 
     22 N         -71.3534   29.9255  -73.0815 N.am      10 UNK        -0.4509 
     23 C         -71.0157   30.3870  -74.2933 C.2       10 UNK         0.4899 
     24 O         -71.0623   31.5774  -74.6058 O.2       10 UNK        -0.4839 
     25 CA        -70.5093   29.3705  -75.3335 C.3       9 UNK         0.0222 
     26 CB        -68.9904   29.5194  -75.5268 C.3       9 UNK        -0.1966 
     27 N         -70.8105   27.9719  -75.0107 N.am      9 UNK        -0.4218 
     28 C         -72.0003   27.3896  -75.2032 C.2       9 UNK         0.5020 
     29 O         -73.0025   27.9832  -75.6028 O.2       9 UNK        -0.5274 
     30 CA        -72.0873   25.8880  -74.8877 C.3       8 UNK         0.0270 
     31 CB        -72.9144   25.6399  -73.6143 C.3       8 UNK        -0.1976 
     32 N         -72.6719   25.1489  -76.0090 N.am      8 UNK        -0.4313 
     33 C         -72.0457   24.9127  -77.1715 C.2       8 UNK         0.5041 
     34 O         -70.8899   25.2675  -77.4081 O.2       8 UNK        -0.5577 
     35 CA        -72.8277   24.1487  -78.2505 C.3       7 UNK         0.0284 
     36 CB        -72.9560   22.6611  -77.8803 C.3       7 UNK        -0.1958 
     37 N         -74.1608   24.7198  -78.4386 N.am      7 UNK        -0.4454 
     38 C         -74.5351   25.4860  -79.4751 C.2       7 UNK         0.5089 
     39 O         -73.8011   25.7633  -80.4241 O.2       7 UNK        -0.5125 
     40 CA        -75.9724   26.0458  -79.4562 C.3       6 UNK         0.0408 
     41 CB        -76.9076   25.1687  -80.3027 C.3       6 UNK        -0.1791 
     42 N         -76.4897   26.1537  -78.0897 N.am      6 UNK        -0.4762 
     43 C         -76.1329   27.1333  -77.2446 C.2       6 UNK         0.5007 
     44 O         -75.5626   28.1592  -77.6169 O.2       6 UNK        -0.5032 
     45 CA        -76.3944   26.9176  -75.7369 C.3       5 UNK         0.0783 
     46 C46       -76.9833   28.1525  -75.0221 C.3       11 UNK        -0.0857 
     47 S47       -78.6705   28.6461  -75.5165 S.3       11 UNK        -0.2512 
     48 C48       -78.7878   30.2894  -74.7231 C.3       11 UNK         0.0225 
     49 N         -77.0925   25.6658  -75.4061 N.am      5 UNK        -0.4615 
     50 C         -76.5022   24.4616  -75.4161 C.2       4 UNK         0.5053 
     51 O         -75.3245   24.2920  -75.7331 O.2       4 UNK        -0.5105 
     52 CA        -77.3744   23.2380  -75.0997 C.3       4 UNK         0.0263 
     53 CB        -77.6333   23.1085  -73.5908 C.3       4 UNK        -0.1981 
     54 N         -78.6388   23.2610  -75.8377 N.am      4 UNK        -0.4224 
     55 C         -78.7410   23.1271  -77.1674 C.2       3 UNK         0.4895 
     56 O         -77.7718   22.9179  -77.8956 O.2       3 UNK        -0.5091 
     57 CA        -80.1284   23.2881  -77.8193 C.3       3 UNK         0.0250 
     58 CB        -80.8396   21.9284  -77.9667 C.3       3 UNK        -0.1996 
     59 N         -80.9862   24.2977  -77.1799 N.am      3 UNK        -0.4254 
     60 C         -81.5561   24.2578  -75.9684 C.2       2 UNK         0.5004 
     61 O         -81.5140   23.2835  -75.2133 O.2       2 UNK        -0.5226 
     62 CA        -82.2497   25.5499  -75.5057 C.3       2 UNK         0.0269 
     63 CB        -83.7644   25.4657  -75.7514 C.3       2 UNK        -0.1926 
     64 N         -82.0096   25.8381  -74.0891 N.am      2 UNK        -0.4687 
     65 C         -80.8130   25.9426  -73.4930 C.2       1 UNK         0.5165 
     66 O         -79.7417   25.8157  -74.0911 O.2       1 UNK        -0.5079 
     67 H67       -84.1049   24.3781  -69.5127 H         1 UNK         0.0900 
     68 H68       -82.7119   23.3600  -69.8828 H         1 UNK         0.0900 
     69 H69       -84.1195   23.3489  -70.9477 H         1 UNK         0.0900 
     70 H70       -81.0133   24.5093  -70.7705 H         1 UNK         0.2959 
     71 H71       -81.3580   27.1784  -71.8680 H         1 UNK         0.1079 
     72 H72       -78.8860   25.4602  -71.3525 H         1 UNK         0.0837 
     73 H73       -78.7900   27.0536  -72.0226 H         1 UNK         0.0837 
     74 H74       -79.7864   29.4034  -69.0348 H         1 UNK         0.0685 
     75 H75       -80.8709   28.9536  -70.3223 H         1 UNK         0.0685 
     76 H76       -80.2831   29.4147  -72.6239 H         1 UNK         0.1434 
     77 H77       -76.4091   30.9846  -73.5748 H         1 UNK         0.1329 
     78 H78       -77.2774   29.7084  -69.5763 H         1 UNK         0.1335 
     79 H79       -75.2186   30.9173  -70.0465 H         1 UNK         0.0680 
     80 H80       -74.9451   31.6534  -71.6107 H         1 UNK         0.0680 
     81 H81       -72.7984   30.6320  -70.0277 H         1 UNK         0.1032 
     82 H82       -72.0053   29.1594  -70.5048 H         1 UNK         0.1032 
     83 H83       -72.3870   31.5678  -72.3401 H         1 UNK         0.0461 
     84 H84       -69.1081   30.4993  -72.2501 H         1 UNK         0.3453 
     85 H85       -68.5479   31.7180  -71.1323 H         1 UNK         0.3453 
     86 H86       -71.2999   28.9343  -72.9043 H         1 UNK         0.2984 
     87 H87       -70.9923   29.6151  -76.2822 H         1 UNK         0.0554 
     88 H88       -68.6265   28.8720  -76.3250 H         1 UNK         0.0847 
     89 H89       -68.4388   29.2756  -74.6181 H         1 UNK         0.0847 
     90 H90       -68.7286   30.5426  -75.8010 H         1 UNK         0.0847 
     91 H91       -70.0403   27.4070  -74.6810 H         1 UNK         0.3141 
     92 H92       -71.0812   25.4988  -74.7167 H         1 UNK         0.0743 
     93 H93       -73.9353   26.0089  -73.7100 H         1 UNK         0.0784 
     94 H94       -72.9657   24.5774  -73.3758 H         1 UNK         0.0784 
     95 H95       -72.4690   26.1441  -72.7557 H         1 UNK         0.0784 
     96 H96       -73.6298   24.8231  -75.8897 H         1 UNK         0.3213 
     97 H97       -72.2566   24.2116  -79.1795 H         1 UNK         0.0855 
     98 H98       -73.5290   22.5149  -76.9638 H         1 UNK         0.0814 
     99 H99       -71.9741   22.2114  -77.7272 H         1 UNK         0.0814 
    100 H100      -73.4491   22.0993  -78.6737 H         1 UNK         0.0814 
    101 H101      -74.8207   24.5650  -77.6850 H         1 UNK         0.3105 
    102 H102      -75.9527   27.0404  -79.9069 H         1 UNK         0.0547 
    103 H103      -76.6091   25.1904  -81.3516 H         1 UNK         0.0837 
    104 H104      -76.8849   24.1261  -79.9871 H         1 UNK         0.0837 
    105 H105      -77.9394   25.5165  -80.2524 H         1 UNK         0.0837 
    106 H106      -76.9733   25.3476  -77.7184 H         1 UNK         0.3020 
    107 H107      -75.3882   26.8213  -75.3259 H         1 UNK         0.1245 
    108 H108      -76.3176   29.0067  -75.1599 H         1 UNK         0.0781 
    109 H109      -76.9915   27.9571  -73.9485 H         1 UNK         0.0781 
    110 H110      -79.8073   30.6646  -74.8232 H         1 UNK         0.0836 
    111 H111      -78.1483   30.9923  -75.2593 H         1 UNK         0.0836 
    112 H112      -78.0642   25.7473  -75.1145 H         1 UNK         0.3022 
    113 H113      -76.8214   22.3513  -75.4176 H         1 UNK         0.0747 
    114 H114      -78.2029   22.2075  -73.3629 H         1 UNK         0.0793 
    115 H115      -76.6936   23.0459  -73.0403 H         1 UNK         0.0793 
    116 H116      -78.1837   23.9603  -73.1946 H         1 UNK         0.0793 
    117 H117      -79.4902   23.4192  -75.3080 H         1 UNK         0.3047 
    118 H118      -79.9464   23.6649  -78.8273 H         1 UNK         0.0822 
    119 H119      -81.8019   22.0357  -78.4672 H         1 UNK         0.0807 
    120 H120      -81.0130   21.4474  -77.0038 H         1 UNK         0.0807 
    121 H121      -80.2385   21.2415  -78.5638 H         1 UNK         0.0807 
    122 H122      -81.0782   25.1563  -77.7059 H         1 UNK         0.2946 
    123 H123      -81.8454   26.3894  -76.0757 H         1 UNK         0.1144 
    124 H124      -84.2636   26.3965  -75.4813 H         1 UNK         0.0793 
    125 H125      -84.2202   24.6605  -75.1733 H         1 UNK         0.0793 
    126 H126      -83.9816   25.2758  -76.8035 H         1 UNK         0.0793 
    127 H127      -82.8264   25.9128  -73.4907 H         1 UNK         0.2896 
@<TRIPOS>BOND
     1    1    2 1    
     2    1   67 1    
     3    1   68 1    
     4    1   69 1    
     5    2    3 2    
     6    2    4 am   BACKBONE|DICT|INTERRES
     7    4    5 1    
     8    4   70 1    
     9    5    6 1    
    10    5   65 1    
    11    5   71 1    
    12    6    7 1    
    13    6   72 1    
    14    6   73 1    
    15    7    8 1    
    16    8    9 1    
    17    8   74 1    
    18    8   75 1    
    19    9   10 ar   
    20    9   14 ar   
    21   10   11 ar   
    22   10   76 1    
    23   11   12 ar   
    24   11   48 1    
    25   12   13 ar   
    26   12   77 1    
    27   13   14 ar   
    28   13   15 1    
    29   14   78 1    
    30   15   16 1    
    31   15   79 1    
    32   15   80 1    
    33   16   17 1    
    34   17   18 1    
    35   17   81 1    
    36   17   82 1    
    37   18   19 1    
    38   18   22 1    
    39   18   83 1    
    40   19   20 am   BACKBONE|DICT|INTERRES
    41   19   21 2    
    42   20   84 1    
    43   20   85 1    
    44   22   23 am   BACKBONE|DICT|INTERRES
    45   22   86 1    
    46   23   24 2    
    47   23   25 1    
    48   25   26 1    
    49   25   27 1    
    50   25   87 1    
    51   26   88 1    
    52   26   89 1    
    53   26   90 1    
    54   27   28 am   BACKBONE|DICT|INTERRES
    55   27   91 1    
    56   28   29 2    
    57   28   30 1    
    58   30   31 1    
    59   30   32 1    
    60   30   92 1    
    61   31   93 1    
    62   31   94 1    
    63   31   95 1    
    64   32   33 am   BACKBONE|DICT|INTERRES
    65   32   96 1    
    66   33   34 2    
    67   33   35 1    
    68   35   36 1    
    69   35   37 1    
    70   35   97 1    
    71   36   98 1    
    72   36   99 1    
    73   36  100 1    
    74   37   38 am   BACKBONE|DICT|INTERRES
    75   37  101 1    
    76   38   39 2    
    77   38   40 1    
    78   40   41 1    
    79   40   42 1    
    80   40  102 1    
    81   41  103 1    
    82   41  104 1    
    83   41  105 1    
    84   42   43 am   BACKBONE|DICT|INTERRES
    85   42  106 1    
    86   43   44 2    
    87   43   45 1    
    88   45   46 1    
    89   45   49 1    
    90   45  107 1    
    91   46   47 1    
    92   46  108 1    
    93   46  109 1    
    94   47   48 1    
    95   48  110 1    
    96   48  111 1    
    97   49   50 am   BACKBONE|DICT|INTERRES
    98   49  112 1    
    99   50   51 2    
   100   50   52 1    
   101   52   53 1    
   102   52   54 1    
   103   52  113 1    
   104   53  114 1    
   105   53  115 1    
   106   53  116 1    
   107   54   55 am   BACKBONE|DICT|INTERRES
   108   54  117 1    
   109   55   56 2    
   110   55   57 1    
   111   57   58 1    
   112   57   59 1    
   113   57  118 1    
   114   58  119 1    
   115   58  120 1    
   116   58  121 1    
   117   59   60 am   BACKBONE|DICT|INTERRES
   118   59  122 1    
   119   60   61 2    
   120   60   62 1    
   121   62   63 1    
   122   62   64 1    
   123   62  123 1    
   124   63  124 1    
   125   63  125 1    
   126   63  126 1    
   127   64   65 am   BACKBONE|DICT|INTERRES
   128   64  127 1    
   129   65   66 2    
@<TRIPOS>SUBSTRUCTURE
     1 UNK         1 GROUP             0       ****    0 ROOT    
