@<TRIPOS>MOLECULE
3R135
127   129    1
SMALL
USER_CHARGES


@<TRIPOS>ATOM
      1 CA        -80.0617   31.3710  -75.6782 C.3       0 UNK        -0.1998 
      2 C         -79.3231   30.0641  -75.4338 C.2       0 UNK         0.4909 
      3 O         -78.2263   29.8781  -75.9581 O.2       0 UNK        -0.5240 
      4 N         -79.9236   29.1593  -74.6476 N.am      1 UNK        -0.4739 
      5 CA        -79.3512   27.8691  -74.2317 C.3       1 UNK         0.0864 
      6 C6        -80.2228   27.1638  -73.1582 C.3       11 UNK        -0.0881 
      7 S7        -80.6604   28.2486  -71.7538 S.3       11 UNK        -0.2682 
      8 C8        -79.6500   27.5703  -70.3967 C.3       11 UNK         0.0289 
      9 C9        -78.1536   27.6821  -70.6592 C.ar      11 UNK        -0.0687 
     10 C10       -77.3460   26.5422  -70.6087 C.ar      11 UNK        -0.0823 
     11 C11       -75.9710   26.6342  -70.8450 C.ar      11 UNK        -0.0830 
     12 C12       -75.4077   27.8763  -71.1527 C.ar      11 UNK        -0.1021 
     13 C13       -76.2025   29.0260  -71.1993 C.ar      11 UNK        -0.0753 
     14 C14       -77.5714   28.9236  -70.9336 C.ar      11 UNK        -0.0933 
     15 C15       -75.5859   30.3754  -71.5411 C.3       11 UNK         0.0166 
     16 S16       -76.2643   31.0251  -73.0981 S.3       11 UNK        -0.2615 
     17 C17       -75.0060   32.2499  -73.5930 C.3       11 UNK        -0.0865 
     18 CA        -74.0461   31.6493  -74.6593 C.3       10 UNK         0.0862 
     19 C         -73.3841   32.7028  -75.6018 C.2       10 UNK         0.5551 
     20 N         -72.2584   32.3907  -76.2345 N.am      10 UNK        -0.7319 
     21 O         -73.9051   33.7991  -75.7926 O.2       10 UNK        -0.5018 
     22 N         -73.1132   30.6694  -74.0772 N.am      10 UNK        -0.4509 
     23 C         -72.0181   30.9336  -73.3485 C.2       10 UNK         0.4899 
     24 O         -71.6978   32.0634  -72.9783 O.2       10 UNK        -0.4839 
     25 CA        -71.1049   29.7471  -72.9744 C.3       9 UNK         0.0222 
     26 CB        -71.2326   29.4191  -71.4775 C.3       9 UNK        -0.1966 
     27 N         -71.3530   28.5300  -73.7535 N.am      9 UNK        -0.4218 
     28 C         -71.1624   28.3858  -75.0731 C.2       9 UNK         0.5020 
     29 O         -70.6601   29.2497  -75.7942 O.2       9 UNK        -0.5274 
     30 CA        -71.6711   27.0751  -75.7062 C.3       8 UNK         0.0270 
     31 CB        -71.6325   25.8712  -74.7400 C.3       8 UNK        -0.1976 
     32 N         -73.0150   27.2209  -76.2819 N.am      8 UNK        -0.4313 
     33 C         -74.1184   27.6933  -75.6833 C.2       8 UNK         0.5041 
     34 O         -74.1600   28.0746  -74.5150 O.2       8 UNK        -0.5577 
     35 CA        -75.3991   27.7578  -76.5248 C.3       7 UNK         0.0284 
     36 CB        -75.2612   28.6897  -77.7456 C.3       7 UNK        -0.1958 
     37 N         -75.8973   26.4293  -76.8848 N.am      7 UNK        -0.4454 
     38 C         -75.3559   25.5181  -77.7039 C.2       7 UNK         0.5089 
     39 O         -74.3405   25.7086  -78.3772 O.2       7 UNK        -0.5125 
     40 CA        -76.0762   24.1556  -77.7375 C.3       6 UNK         0.0408 
     41 CB        -75.3112   23.0800  -78.5371 C.3       6 UNK        -0.1791 
     42 N         -76.4085   23.6825  -76.3861 N.am      6 UNK        -0.4762 
     43 C         -75.5438   23.4074  -75.3943 C.2       6 UNK         0.5007 
     44 O         -74.3202   23.4120  -75.5315 O.2       6 UNK        -0.5032 
     45 CA        -76.1454   23.0567  -74.0166 C.3       5 UNK         0.0783 
     46 C46       -76.2248   24.2936  -73.0874 C.3       11 UNK        -0.0857 
     47 S47       -74.6101   24.7630  -72.3842 S.3       11 UNK        -0.2512 
     48 C48       -75.0905   25.3956  -70.7478 C.3       11 UNK         0.0225 
     49 N         -77.4524   22.4033  -74.1322 N.am      5 UNK        -0.4615 
     50 C         -77.6436   21.1306  -74.4938 C.2       4 UNK         0.5053 
     51 O         -76.7285   20.3656  -74.7984 O.2       4 UNK        -0.5105 
     52 CA        -79.0916   20.6055  -74.5001 C.3       4 UNK         0.0263 
     53 CB        -79.5902   20.3461  -73.0644 C.3       4 UNK        -0.1981 
     54 N         -80.0526   21.4177  -75.2622 N.am      4 UNK        -0.4224 
     55 C         -80.4710   22.6691  -75.0282 C.2       3 UNK         0.4895 
     56 O         -80.0661   23.3811  -74.1059 O.2       3 UNK        -0.5091 
     57 CA        -81.5455   23.2146  -75.9805 C.3       3 UNK         0.0250 
     58 CB        -82.8994   23.3270  -75.2608 C.3       3 UNK        -0.1996 
     59 N         -81.1552   24.5292  -76.4824 N.am      3 UNK        -0.4254 
     60 C         -80.2179   24.7352  -77.4170 C.2       2 UNK         0.5004 
     61 O         -79.6562   23.8315  -78.0356 O.2       2 UNK        -0.5226 
     62 CA        -79.8217   26.1970  -77.6869 C.3       2 UNK         0.0269 
     63 CB        -80.6955   26.8021  -78.7965 C.3       2 UNK        -0.1926 
     64 N         -79.8984   27.0414  -76.4904 N.am      2 UNK        -0.4687 
     65 C         -79.1089   26.9061  -75.4137 C.2       1 UNK         0.5165 
     66 O         -78.2186   26.0599  -75.3381 O.2       1 UNK        -0.5079 
     67 H67       -79.4605   32.2092  -75.3267 H         1 UNK         0.0900 
     68 H68       -81.0208   31.4012  -75.1616 H         1 UNK         0.0900 
     69 H69       -80.2445   31.5052  -76.7440 H         1 UNK         0.0900 
     70 H70       -80.8152   29.3834  -74.2286 H         1 UNK         0.2959 
     71 H71       -78.3727   28.0793  -73.7920 H         1 UNK         0.1079 
     72 H72       -81.1578   26.8096  -73.5970 H         1 UNK         0.0837 
     73 H73       -79.7148   26.2722  -72.7835 H         1 UNK         0.0837 
     74 H74       -79.8861   28.1117  -69.4798 H         1 UNK         0.0685 
     75 H75       -79.9424   26.5331  -70.2255 H         1 UNK         0.0685 
     76 H76       -77.7869   25.5819  -70.3788 H         1 UNK         0.1434 
     77 H77       -74.3493   27.9425  -71.3615 H         1 UNK         0.1329 
     78 H78       -78.1903   29.8098  -70.9699 H         1 UNK         0.1335 
     79 H79       -75.7806   31.0849  -70.7359 H         1 UNK         0.0680 
     80 H80       -74.5025   30.2868  -71.6257 H         1 UNK         0.0680 
     81 H81       -74.4579   32.6194  -72.7250 H         1 UNK         0.1032 
     82 H82       -75.5529   33.1065  -73.9898 H         1 UNK         0.1032 
     83 H83       -74.6615   31.0688  -75.3476 H         1 UNK         0.0461 
     84 H84       -71.8342   33.0651  -76.8515 H         1 UNK         0.3453 
     85 H85       -71.8218   31.4920  -76.0886 H         1 UNK         0.3453 
     86 H86       -73.3453   29.6950  -74.2636 H         1 UNK         0.2984 
     87 H87       -70.0768   30.0588  -73.1691 H         1 UNK         0.0554 
     88 H88       -70.5333   28.6375  -71.1800 H         1 UNK         0.0847 
     89 H89       -72.2383   29.0871  -71.2202 H         1 UNK         0.0847 
     90 H90       -71.0139   30.2954  -70.8656 H         1 UNK         0.0847 
     91 H91       -71.8427   27.7844  -73.2793 H         1 UNK         0.3141 
     92 H92       -70.9994   26.8519  -76.5365 H         1 UNK         0.0743 
     93 H93       -72.3532   25.9680  -73.9283 H         1 UNK         0.0784 
     94 H94       -71.8638   24.9443  -75.2656 H         1 UNK         0.0784 
     95 H95       -70.6434   25.7513  -74.2960 H         1 UNK         0.0784 
     96 H96       -73.1316   26.8828  -77.2327 H         1 UNK         0.3213 
     97 H97       -76.1655   28.1893  -75.8789 H         1 UNK         0.0855 
     98 H98       -74.9508   29.6879  -77.4351 H         1 UNK         0.0814 
     99 H99       -76.2146   28.7972  -78.2630 H         1 UNK         0.0814 
    100 H100      -74.5265   28.3329  -78.4670 H         1 UNK         0.0814 
    101 H101      -76.7105   26.1378  -76.3435 H         1 UNK         0.3105 
    102 H102      -77.0241   24.3254  -78.2477 H         1 UNK         0.0547 
    103 H103      -75.1811   23.3883  -79.5751 H         1 UNK         0.0837 
    104 H104      -74.3171   22.8965  -78.1291 H         1 UNK         0.0837 
    105 H105      -75.8514   22.1335  -78.5454 H         1 UNK         0.0837 
    106 H106      -77.3937   23.6651  -76.1587 H         1 UNK         0.3020 
    107 H107      -75.4683   22.3336  -73.5552 H         1 UNK         0.1245 
    108 H108      -76.8996   24.0787  -72.2577 H         1 UNK         0.0781 
    109 H109      -76.6464   25.1597  -73.5965 H         1 UNK         0.0781 
    110 H110      -74.1869   25.6390  -70.1871 H         1 UNK         0.0836 
    111 H111      -75.5902   24.6050  -70.1859 H         1 UNK         0.0836 
    112 H112      -78.2787   22.9640  -73.9329 H         1 UNK         0.3022 
    113 H113      -79.0644   19.6399  -75.0082 H         1 UNK         0.0747 
    114 H114      -80.5757   19.8803  -73.0659 H         1 UNK         0.0793 
    115 H115      -78.9152   19.6731  -72.5339 H         1 UNK         0.0793 
    116 H116      -79.6557   21.2643  -72.4798 H         1 UNK         0.0793 
    117 H117      -80.4357   20.9513  -76.0735 H         1 UNK         0.3047 
    118 H118      -81.6613   22.5365  -76.8291 H         1 UNK         0.0822 
    119 H119      -83.6763   23.6951  -75.9312 H         1 UNK         0.0807 
    120 H120      -82.8480   24.0003  -74.4039 H         1 UNK         0.0807 
    121 H121      -83.2256   22.3541  -74.8906 H         1 UNK         0.0807 
    122 H122      -81.5317   25.3309  -75.9995 H         1 UNK         0.2946 
    123 H123      -78.7854   26.1964  -78.0316 H         1 UNK         0.1144 
    124 H124      -80.6382   26.2040  -79.7072 H         1 UNK         0.0793 
    125 H125      -80.3691   27.8104  -79.0524 H         1 UNK         0.0793 
    126 H126      -81.7452   26.8518  -78.5045 H         1 UNK         0.0793 
    127 H127      -80.5886   27.7786  -76.4861 H         1 UNK         0.2896 
@<TRIPOS>BOND
     1    1    2 1    
     2    1   67 1    
     3    1   68 1    
     4    1   69 1    
     5    2    3 2    
     6    2    4 am   BACKBONE|DICT|INTERRES
     7    4    5 1    
     8    4   70 1    
     9    5    6 1    
    10    5   65 1    
    11    5   71 1    
    12    6    7 1    
    13    6   72 1    
    14    6   73 1    
    15    7    8 1    
    16    8    9 1    
    17    8   74 1    
    18    8   75 1    
    19    9   10 ar   
    20    9   14 ar   
    21   10   11 ar   
    22   10   76 1    
    23   11   12 ar   
    24   11   48 1    
    25   12   13 ar   
    26   12   77 1    
    27   13   14 ar   
    28   13   15 1    
    29   14   78 1    
    30   15   16 1    
    31   15   79 1    
    32   15   80 1    
    33   16   17 1    
    34   17   18 1    
    35   17   81 1    
    36   17   82 1    
    37   18   19 1    
    38   18   22 1    
    39   18   83 1    
    40   19   20 am   BACKBONE|DICT|INTERRES
    41   19   21 2    
    42   20   84 1    
    43   20   85 1    
    44   22   23 am   BACKBONE|DICT|INTERRES
    45   22   86 1    
    46   23   24 2    
    47   23   25 1    
    48   25   26 1    
    49   25   27 1    
    50   25   87 1    
    51   26   88 1    
    52   26   89 1    
    53   26   90 1    
    54   27   28 am   BACKBONE|DICT|INTERRES
    55   27   91 1    
    56   28   29 2    
    57   28   30 1    
    58   30   31 1    
    59   30   32 1    
    60   30   92 1    
    61   31   93 1    
    62   31   94 1    
    63   31   95 1    
    64   32   33 am   BACKBONE|DICT|INTERRES
    65   32   96 1    
    66   33   34 2    
    67   33   35 1    
    68   35   36 1    
    69   35   37 1    
    70   35   97 1    
    71   36   98 1    
    72   36   99 1    
    73   36  100 1    
    74   37   38 am   BACKBONE|DICT|INTERRES
    75   37  101 1    
    76   38   39 2    
    77   38   40 1    
    78   40   41 1    
    79   40   42 1    
    80   40  102 1    
    81   41  103 1    
    82   41  104 1    
    83   41  105 1    
    84   42   43 am   BACKBONE|DICT|INTERRES
    85   42  106 1    
    86   43   44 2    
    87   43   45 1    
    88   45   46 1    
    89   45   49 1    
    90   45  107 1    
    91   46   47 1    
    92   46  108 1    
    93   46  109 1    
    94   47   48 1    
    95   48  110 1    
    96   48  111 1    
    97   49   50 am   BACKBONE|DICT|INTERRES
    98   49  112 1    
    99   50   51 2    
   100   50   52 1    
   101   52   53 1    
   102   52   54 1    
   103   52  113 1    
   104   53  114 1    
   105   53  115 1    
   106   53  116 1    
   107   54   55 am   BACKBONE|DICT|INTERRES
   108   54  117 1    
   109   55   56 2    
   110   55   57 1    
   111   57   58 1    
   112   57   59 1    
   113   57  118 1    
   114   58  119 1    
   115   58  120 1    
   116   58  121 1    
   117   59   60 am   BACKBONE|DICT|INTERRES
   118   59  122 1    
   119   60   61 2    
   120   60   62 1    
   121   62   63 1    
   122   62   64 1    
   123   62  123 1    
   124   63  124 1    
   125   63  125 1    
   126   63  126 1    
   127   64   65 am   BACKBONE|DICT|INTERRES
   128   64  127 1    
   129   65   66 2    
@<TRIPOS>SUBSTRUCTURE
     1 UNK         1 GROUP             0       ****    0 ROOT    
