@<TRIPOS>MOLECULE
3R135
127   129    1
SMALL
USER_CHARGES


@<TRIPOS>ATOM
      1 CA        -85.4109   25.6290  -69.3975 C.3       0 UNK        -0.1998 
      2 C         -84.6402   26.0225  -70.6488 C.2       0 UNK         0.4909 
      3 O         -85.2385   26.5175  -71.6043 O.2       0 UNK        -0.5240 
      4 N         -83.3167   25.8121  -70.6461 N.am      1 UNK        -0.4739 
      5 CA        -82.4172   26.0877  -71.7729 C.3       1 UNK         0.0864 
      6 C6        -80.9371   26.0475  -71.3128 C.3       11 UNK        -0.0881 
      7 S7        -79.7543   26.7029  -72.5383 S.3       11 UNK        -0.2682 
      8 C8        -79.5693   28.4201  -71.9701 C.3       11 UNK         0.0289 
      9 C9        -78.3738   29.0911  -72.6281 C.ar      11 UNK        -0.0687 
     10 C10       -78.5334   29.8670  -73.7817 C.ar      11 UNK        -0.0823 
     11 C11       -77.4335   30.5083  -74.3632 C.ar      11 UNK        -0.0830 
     12 C12       -76.1681   30.3539  -73.7870 C.ar      11 UNK        -0.1021 
     13 C13       -75.9968   29.5768  -72.6384 C.ar      11 UNK        -0.0753 
     14 C14       -77.1036   28.9494  -72.0623 C.ar      11 UNK        -0.0933 
     15 C15       -74.6116   29.3927  -72.0409 C.3       11 UNK         0.0166 
     16 S16       -73.9456   30.9430  -71.3670 S.3       11 UNK        -0.2615 
     17 C17       -72.2886   30.4038  -70.8236 C.3       11 UNK        -0.0865 
     18 CA        -71.2165   30.5962  -71.9276 C.3       10 UNK         0.0862 
     19 C         -69.7847   30.5421  -71.3314 C.2       10 UNK         0.5551 
     20 N         -69.2456   31.6796  -70.9153 N.am      10 UNK        -0.7319 
     21 O         -69.1767   29.4806  -71.2047 O.2       10 UNK        -0.5018 
     22 N         -71.3779   29.6099  -73.0037 N.am      10 UNK        -0.4509 
     23 C         -70.9696   29.7712  -74.2640 C.2       10 UNK         0.4899 
     24 O         -70.4922   30.8228  -74.6921 O.2       10 UNK        -0.4839 
     25 CA        -71.1064   28.5776  -75.2301 C.3       9 UNK         0.0222 
     26 CB        -69.7688   27.8232  -75.3528 C.3       9 UNK        -0.1966 
     27 N         -72.2101   27.6366  -74.9789 N.am      9 UNK        -0.4218 
     28 C         -72.4031   26.7951  -73.9511 C.2       9 UNK         0.5020 
     29 O         -71.7359   26.8070  -72.9162 O.2       9 UNK        -0.5274 
     30 CA        -73.5194   25.7449  -74.1100 C.3       8 UNK         0.0270 
     31 CB        -74.8854   26.3005  -73.6793 C.3       8 UNK        -0.1976 
     32 N         -73.6208   25.2253  -75.4747 N.am      8 UNK        -0.4313 
     33 C         -72.6868   24.4840  -76.0881 C.2       8 UNK         0.5041 
     34 O         -71.6438   24.1063  -75.5531 O.2       8 UNK        -0.5577 
     35 CA        -72.9601   24.1089  -77.5518 C.3       7 UNK         0.0284 
     36 CB        -73.9016   22.8962  -77.6390 C.3       7 UNK        -0.1958 
     37 N         -73.5262   25.2380  -78.2931 N.am      7 UNK        -0.4454 
     38 C         -72.7977   26.2388  -78.8084 C.2       7 UNK         0.5089 
     39 O         -71.5676   26.2767  -78.7776 O.2       7 UNK        -0.5125 
     40 CA        -73.5637   27.3994  -79.4718 C.3       6 UNK         0.0408 
     41 CB        -73.7010   27.1542  -80.9827 C.3       6 UNK        -0.1791 
     42 N         -74.8914   27.6390  -78.8983 N.am      6 UNK        -0.4762 
     43 C         -75.1153   28.0827  -77.6519 C.2       6 UNK         0.5007 
     44 O         -74.2181   28.3294  -76.8463 O.2       6 UNK        -0.5032 
     45 CA        -76.5925   28.1905  -77.2102 C.3       5 UNK         0.0783 
     46 C46       -77.2538   29.5183  -77.6567 C.3       11 UNK        -0.0857 
     47 S47       -76.4910   31.0171  -76.9498 S.3       11 UNK        -0.2512 
     48 C48       -77.6205   31.4153  -75.5746 C.3       11 UNK         0.0225 
     49 N         -77.3913   27.0432  -77.6617 N.am      5 UNK        -0.4615 
     50 C         -77.1383   25.7625  -77.3685 C.2       4 UNK         0.5053 
     51 O         -76.1641   25.3864  -76.7136 O.2       4 UNK        -0.5105 
     52 CA        -78.1007   24.7165  -77.9479 C.3       4 UNK         0.0263 
     53 CB        -77.4775   24.0300  -79.1742 C.3       4 UNK        -0.1981 
     54 N         -78.4185   23.7135  -76.9321 N.am      4 UNK        -0.4224 
     55 C         -79.2300   23.9487  -75.8941 C.2       3 UNK         0.4895 
     56 O         -79.8818   24.9866  -75.7603 O.2       3 UNK        -0.5091 
     57 CA        -79.2799   22.8611  -74.8081 C.3       3 UNK         0.0250 
     58 CB        -78.1106   23.0426  -73.8245 C.3       3 UNK        -0.1996 
     59 N         -80.5377   22.9063  -74.0614 N.am      3 UNK        -0.4254 
     60 C         -81.7256   22.5025  -74.5330 C.2       2 UNK         0.5004 
     61 O         -81.8739   21.9374  -75.6177 O.2       2 UNK        -0.5226 
     62 CA        -82.9596   22.7591  -73.6455 C.3       2 UNK         0.0269 
     63 CB        -83.3758   21.4717  -72.9150 C.3       2 UNK        -0.1926 
     64 N         -82.7611   23.8261  -72.6580 N.am      2 UNK        -0.4687 
     65 C         -82.6902   25.1330  -72.9551 C.2       1 UNK         0.5165 
     66 O         -82.8578   25.5868  -74.0876 O.2       1 UNK        -0.5079 
     67 H67       -84.7586   25.2145  -68.6292 H         1 UNK         0.0900 
     68 H68       -86.1649   24.8812  -69.6414 H         1 UNK         0.0900 
     69 H69       -85.9165   26.4990  -68.9792 H         1 UNK         0.0900 
     70 H70       -82.8862   25.4115  -69.8245 H         1 UNK         0.2959 
     71 H71       -82.6344   27.1007  -72.1202 H         1 UNK         0.1079 
     72 H72       -80.6368   25.0284  -71.0625 H         1 UNK         0.0837 
     73 H73       -80.8234   26.6147  -70.3876 H         1 UNK         0.0837 
     74 H74       -80.4857   28.9724  -72.1841 H         1 UNK         0.0685 
     75 H75       -79.4421   28.4401  -70.8867 H         1 UNK         0.0685 
     76 H76       -79.5180   29.9841  -74.2136 H         1 UNK         0.1434 
     77 H77       -75.3121   30.8467  -74.2281 H         1 UNK         0.1329 
     78 H78       -76.9790   28.3449  -71.1742 H         1 UNK         0.1335 
     79 H79       -74.6218   28.6361  -71.2550 H         1 UNK         0.0680 
     80 H80       -73.9520   29.0249  -72.8241 H         1 UNK         0.0680 
     81 H81       -72.3191   29.3677  -70.4807 H         1 UNK         0.1032 
     82 H82       -72.0409   31.0005  -69.9433 H         1 UNK         0.1032 
     83 H83       -71.3537   31.5915  -72.3563 H         1 UNK         0.0461 
     84 H84       -68.3223   31.6657  -70.5105 H         1 UNK         0.3453 
     85 H85       -69.7391   32.5543  -71.0059 H         1 UNK         0.3453 
     86 H86       -71.6393   28.6689  -72.7243 H         1 UNK         0.2984 
     87 H87       -71.3260   29.0073  -76.2088 H         1 UNK         0.0554 
     88 H88       -69.8253   27.0394  -76.1087 H         1 UNK         0.0847 
     89 H89       -69.4765   27.3600  -74.4097 H         1 UNK         0.0847 
     90 H90       -68.9640   28.4989  -75.6453 H         1 UNK         0.0847 
     91 H91       -72.9129   27.6293  -75.7163 H         1 UNK         0.3141 
     92 H92       -73.2759   24.9042  -73.4570 H         1 UNK         0.0743 
     93 H93       -75.1679   27.1782  -74.2617 H         1 UNK         0.0784 
     94 H94       -75.6738   25.5567  -73.7985 H         1 UNK         0.0784 
     95 H95       -74.8736   26.5865  -72.6279 H         1 UNK         0.0784 
     96 H96       -74.4871   25.4210  -75.9737 H         1 UNK         0.3213 
     97 H97       -72.0090   23.8270  -78.0096 H         1 UNK         0.0855 
     98 H98       -74.8620   23.0876  -77.1599 H         1 UNK         0.0814 
     99 H99       -73.4615   22.0302  -77.1428 H         1 UNK         0.0814 
    100 H100      -74.0903   22.6133  -78.6746 H         1 UNK         0.0814 
    101 H101      -74.5335   25.3153  -78.3098 H         1 UNK         0.3105 
    102 H102      -72.9713   28.3056  -79.3276 H         1 UNK         0.0547 
    103 H103      -72.7238   26.9997  -81.4426 H         1 UNK         0.0837 
    104 H104      -74.3041   26.2710  -81.1969 H         1 UNK         0.0837 
    105 H105      -74.1604   28.0062  -81.4840 H         1 UNK         0.0837 
    106 H106      -75.6871   27.4465  -79.4897 H         1 UNK         0.3020 
    107 H107      -76.5965   28.1642  -76.1177 H         1 UNK         0.1245 
    108 H108      -77.2273   29.6091  -78.7442 H         1 UNK         0.0781 
    109 H109      -78.3115   29.5122  -77.3885 H         1 UNK         0.0781 
    110 H110      -77.4323   32.4434  -75.2624 H         1 UNK         0.0836 
    111 H111      -78.6511   31.3927  -75.9321 H         1 UNK         0.0836 
    112 H112      -78.2098   27.2601  -78.2118 H         1 UNK         0.3022 
    113 H113      -79.0254   25.2078  -78.2592 H         1 UNK         0.0747 
    114 H114      -77.2395   24.7574  -79.9515 H         1 UNK         0.0793 
    115 H115      -76.5548   23.5064  -78.9243 H         1 UNK         0.0793 
    116 H116      -78.1640   23.3049  -79.6118 H         1 UNK         0.0793 
    117 H117      -77.8802   22.8597  -76.9528 H         1 UNK         0.3047 
    118 H118      -79.1939   21.8823  -75.2853 H         1 UNK         0.0822 
    119 H119      -78.1089   22.2655  -73.0599 H         1 UNK         0.0807 
    120 H120      -78.1541   24.0099  -73.3215 H         1 UNK         0.0807 
    121 H121      -77.1505   22.9907  -74.3403 H         1 UNK         0.0807 
    122 H122      -80.5223   23.4003  -73.1823 H         1 UNK         0.2946 
    123 H123      -83.7752   23.0556  -74.3095 H         1 UNK         0.1144 
    124 H124      -82.6020   21.1288  -72.2270 H         1 UNK         0.0793 
    125 H125      -83.5624   20.6638  -73.6240 H         1 UNK         0.0793 
    126 H126      -84.2936   21.6175  -72.3449 H         1 UNK         0.0793 
    127 H127      -82.6537   23.5427  -71.6946 H         1 UNK         0.2896 
@<TRIPOS>BOND
     1    1    2 1    
     2    1   67 1    
     3    1   68 1    
     4    1   69 1    
     5    2    3 2    
     6    2    4 am   BACKBONE|DICT|INTERRES
     7    4    5 1    
     8    4   70 1    
     9    5    6 1    
    10    5   65 1    
    11    5   71 1    
    12    6    7 1    
    13    6   72 1    
    14    6   73 1    
    15    7    8 1    
    16    8    9 1    
    17    8   74 1    
    18    8   75 1    
    19    9   10 ar   
    20    9   14 ar   
    21   10   11 ar   
    22   10   76 1    
    23   11   12 ar   
    24   11   48 1    
    25   12   13 ar   
    26   12   77 1    
    27   13   14 ar   
    28   13   15 1    
    29   14   78 1    
    30   15   16 1    
    31   15   79 1    
    32   15   80 1    
    33   16   17 1    
    34   17   18 1    
    35   17   81 1    
    36   17   82 1    
    37   18   19 1    
    38   18   22 1    
    39   18   83 1    
    40   19   20 am   BACKBONE|DICT|INTERRES
    41   19   21 2    
    42   20   84 1    
    43   20   85 1    
    44   22   23 am   BACKBONE|DICT|INTERRES
    45   22   86 1    
    46   23   24 2    
    47   23   25 1    
    48   25   26 1    
    49   25   27 1    
    50   25   87 1    
    51   26   88 1    
    52   26   89 1    
    53   26   90 1    
    54   27   28 am   BACKBONE|DICT|INTERRES
    55   27   91 1    
    56   28   29 2    
    57   28   30 1    
    58   30   31 1    
    59   30   32 1    
    60   30   92 1    
    61   31   93 1    
    62   31   94 1    
    63   31   95 1    
    64   32   33 am   BACKBONE|DICT|INTERRES
    65   32   96 1    
    66   33   34 2    
    67   33   35 1    
    68   35   36 1    
    69   35   37 1    
    70   35   97 1    
    71   36   98 1    
    72   36   99 1    
    73   36  100 1    
    74   37   38 am   BACKBONE|DICT|INTERRES
    75   37  101 1    
    76   38   39 2    
    77   38   40 1    
    78   40   41 1    
    79   40   42 1    
    80   40  102 1    
    81   41  103 1    
    82   41  104 1    
    83   41  105 1    
    84   42   43 am   BACKBONE|DICT|INTERRES
    85   42  106 1    
    86   43   44 2    
    87   43   45 1    
    88   45   46 1    
    89   45   49 1    
    90   45  107 1    
    91   46   47 1    
    92   46  108 1    
    93   46  109 1    
    94   47   48 1    
    95   48  110 1    
    96   48  111 1    
    97   49   50 am   BACKBONE|DICT|INTERRES
    98   49  112 1    
    99   50   51 2    
   100   50   52 1    
   101   52   53 1    
   102   52   54 1    
   103   52  113 1    
   104   53  114 1    
   105   53  115 1    
   106   53  116 1    
   107   54   55 am   BACKBONE|DICT|INTERRES
   108   54  117 1    
   109   55   56 2    
   110   55   57 1    
   111   57   58 1    
   112   57   59 1    
   113   57  118 1    
   114   58  119 1    
   115   58  120 1    
   116   58  121 1    
   117   59   60 am   BACKBONE|DICT|INTERRES
   118   59  122 1    
   119   60   61 2    
   120   60   62 1    
   121   62   63 1    
   122   62   64 1    
   123   62  123 1    
   124   63  124 1    
   125   63  125 1    
   126   63  126 1    
   127   64   65 am   BACKBONE|DICT|INTERRES
   128   64  127 1    
   129   65   66 2    
@<TRIPOS>SUBSTRUCTURE
     1 UNK         1 GROUP             0       ****    0 ROOT    
