@<TRIPOS>MOLECULE
3R135
127   129    1
SMALL
USER_CHARGES


@<TRIPOS>ATOM
      1 CA        -83.8044   28.4974  -71.4500 C.3       0 UNK        -0.1998 
      2 C         -83.2190   28.5620  -72.8526 C.2       0 UNK         0.4909 
      3 O         -83.9686   28.5662  -73.8292 O.2       0 UNK        -0.5240 
      4 N         -81.8845   28.6172  -72.9565 N.am      1 UNK        -0.4739 
      5 CA        -81.1404   28.6690  -74.2219 C.3       1 UNK         0.0864 
      6 C6        -79.6567   29.0634  -74.0088 C.3       11 UNK        -0.0881 
      7 S7        -79.4467   30.7647  -73.3690 S.3       11 UNK        -0.2682 
      8 C8        -79.4335   30.5674  -71.5531 C.3       11 UNK         0.0289 
      9 C9        -78.2811   29.6983  -71.0745 C.ar      11 UNK        -0.0687 
     10 C10       -78.5015   28.3603  -70.7427 C.ar      11 UNK        -0.0823 
     11 C11       -77.4378   27.5423  -70.3592 C.ar      11 UNK        -0.0830 
     12 C12       -76.1492   28.0801  -70.2829 C.ar      11 UNK        -0.1021 
     13 C13       -75.9070   29.4151  -70.6219 C.ar      11 UNK        -0.0753 
     14 C14       -76.9904   30.2261  -70.9886 C.ar      11 UNK        -0.0933 
     15 C15       -74.4560   29.9041  -70.6070 C.3       11 UNK         0.0166 
     16 S16       -74.1389   31.5719  -71.2899 S.3       11 UNK        -0.2615 
     17 C17       -74.6476   31.5159  -73.0519 C.3       11 UNK        -0.0865 
     18 CA        -74.5201   30.1609  -73.8167 C.3       10 UNK         0.0862 
     19 C         -75.1143   30.2823  -75.2493 C.2       10 UNK         0.5551 
     20 N         -76.4287   30.4329  -75.3541 N.am      10 UNK        -0.7319 
     21 O         -74.4171   30.2698  -76.2606 O.2       10 UNK        -0.5018 
     22 N         -73.1660   29.5791  -73.7904 N.am      10 UNK        -0.4509 
     23 C         -72.0160   30.1727  -74.1410 C.2       10 UNK         0.4899 
     24 O         -71.9152   31.3416  -74.5150 O.2       10 UNK        -0.4839 
     25 CA        -70.7363   29.3249  -74.0250 C.3       9 UNK         0.0222 
     26 CB        -70.1049   29.5078  -72.6347 C.3       9 UNK        -0.1966 
     27 N         -70.9443   27.8954  -74.2771 N.am      9 UNK        -0.4218 
     28 C         -71.1766   27.3585  -75.4832 C.2       9 UNK         0.5020 
     29 O         -71.2374   28.0223  -76.5202 O.2       9 UNK        -0.5274 
     30 CA        -71.3207   25.8262  -75.5554 C.3       8 UNK         0.0270 
     31 CB        -71.6272   25.1589  -74.1973 C.3       8 UNK        -0.1976 
     32 N         -72.3830   25.4844  -76.4989 N.am      8 UNK        -0.4313 
     33 C         -72.2106   24.9495  -77.7148 C.2       8 UNK         0.5041 
     34 O         -71.1082   24.6450  -78.1746 O.2       8 UNK        -0.5577 
     35 CA        -73.4664   24.6762  -78.5694 C.3       7 UNK         0.0284 
     36 CB        -73.6903   23.1620  -78.7221 C.3       7 UNK        -0.1958 
     37 N         -74.6884   25.2781  -78.0320 N.am      7 UNK        -0.4454 
     38 C         -75.0054   26.5778  -78.1022 C.2       7 UNK         0.5089 
     39 O         -74.3552   27.4066  -78.7381 O.2       7 UNK        -0.5125 
     40 CA        -76.2385   27.0316  -77.2977 C.3       6 UNK         0.0408 
     41 CB        -77.5048   26.9799  -78.1649 C.3       6 UNK        -0.1791 
     42 N         -76.4520   26.2478  -76.0761 N.am      6 UNK        -0.4762 
     43 C         -75.6008   26.1855  -75.0419 C.2       6 UNK         0.5007 
     44 O         -74.5526   26.8266  -74.9833 O.2       6 UNK        -0.5032 
     45 CA        -75.9395   25.2095  -73.9035 C.3       5 UNK         0.0783 
     46 C46       -76.8700   25.8626  -72.8592 C.3       11 UNK        -0.0857 
     47 S47       -76.7639   24.9787  -71.2629 S.3       11 UNK        -0.2512 
     48 C48       -77.6769   26.0597  -70.1059 C.3       11 UNK         0.0225 
     49 N         -76.5000   23.9679  -74.4351 N.am      5 UNK        -0.4615 
     50 C         -75.7729   22.9428  -74.8942 C.2       4 UNK         0.5053 
     51 O         -74.5430   22.9124  -74.8739 O.2       4 UNK        -0.5105 
     52 CA        -76.5465   21.7525  -75.4898 C.3       4 UNK         0.0263 
     53 CB        -76.8388   20.7063  -74.4025 C.3       4 UNK        -0.1981 
     54 N         -77.8020   22.1410  -76.1397 N.am      4 UNK        -0.4224 
     55 C         -77.8773   22.8845  -77.2523 C.2       3 UNK         0.4895 
     56 O         -76.8947   23.3034  -77.8630 O.2       3 UNK        -0.5091 
     57 CA        -79.2854   23.2647  -77.7428 C.3       3 UNK         0.0250 
     58 CB        -79.8735   22.1382  -78.6076 C.3       3 UNK        -0.1996 
     59 N         -80.2394   23.6195  -76.6826 N.am      3 UNK        -0.4254 
     60 C         -80.0436   24.5481  -75.7353 C.2       2 UNK         0.5004 
     61 O         -78.9724   25.1292  -75.5538 O.2       2 UNK        -0.5226 
     62 CA        -81.2313   24.8464  -74.8044 C.3       2 UNK         0.0269 
     63 CB        -81.2354   23.8594  -73.6256 C.3       2 UNK        -0.1926 
     64 N         -81.2018   26.2125  -74.2709 N.am      2 UNK        -0.4687 
     65 C         -81.2392   27.3395  -75.0002 C.2       1 UNK         0.5165 
     66 O         -81.3659   27.3626  -76.2256 O.2       1 UNK        -0.5079 
     67 H67       -83.0316   28.5152  -70.6830 H         1 UNK         0.0900 
     68 H68       -84.3828   27.5831  -71.3268 H         1 UNK         0.0900 
     69 H69       -84.4674   29.3445  -71.2813 H         1 UNK         0.0900 
     70 H70       -81.3260   28.6307  -72.1180 H         1 UNK         0.2959 
     71 H71       -81.6060   29.4338  -74.8482 H         1 UNK         0.1079 
     72 H72       -79.1455   28.3457  -73.3678 H         1 UNK         0.0837 
     73 H73       -79.1248   29.0243  -74.9620 H         1 UNK         0.0837 
     74 H74       -79.3501   31.5557  -71.0986 H         1 UNK         0.0685 
     75 H75       -80.3893   30.1667  -71.2156 H         1 UNK         0.0685 
     76 H76       -79.4967   27.9454  -70.8147 H         1 UNK         0.1434 
     77 H77       -75.3234   27.4383  -70.0065 H         1 UNK         0.1329 
     78 H78       -76.8438   31.2663  -71.2359 H         1 UNK         0.1335 
     79 H79       -74.1124   29.9027  -69.5718 H         1 UNK         0.0680 
     80 H80       -73.8257   29.1857  -71.1317 H         1 UNK         0.0680 
     81 H81       -74.0878   32.2935  -73.5731 H         1 UNK         0.1032 
     82 H82       -75.6813   31.8615  -73.0892 H         1 UNK         0.1032 
     83 H83       -75.1445   29.4236  -73.3124 H         1 UNK         0.0461 
     84 H84       -76.8315   30.5355  -76.2716 H         1 UNK         0.3453 
     85 H85       -77.0243   30.4609  -74.5410 H         1 UNK         0.3453 
     86 H86       -73.1358   28.5919  -73.5833 H         1 UNK         0.2984 
     87 H87       -70.0271   29.6978  -74.7673 H         1 UNK         0.0554 
     88 H88       -69.1519   28.9841  -72.5570 H         1 UNK         0.0847 
     89 H89       -70.7579   29.1418  -71.8412 H         1 UNK         0.0847 
     90 H90       -69.9098   30.5620  -72.4320 H         1 UNK         0.0847 
     91 H91       -70.8936   27.2781  -73.4796 H         1 UNK         0.3141 
     92 H92       -70.3634   25.4380  -75.9086 H         1 UNK         0.0743 
     93 H93       -70.7905   25.2581  -73.5049 H         1 UNK         0.0784 
     94 H94       -72.5112   25.5830  -73.7207 H         1 UNK         0.0784 
     95 H95       -71.8064   24.0902  -74.3205 H         1 UNK         0.0784 
     96 H96       -73.3106   25.7924  -76.2291 H         1 UNK         0.3213 
     97 H97       -73.2814   25.0964  -79.5602 H         1 UNK         0.0855 
     98 H98       -72.8126   22.6753  -79.1496 H         1 UNK         0.0814 
     99 H99       -74.5309   22.9499  -79.3832 H         1 UNK         0.0814 
    100 H100      -73.8924   22.6873  -77.7609 H         1 UNK         0.0814 
    101 H101      -75.3433   24.6499  -77.5774 H         1 UNK         0.3105 
    102 H102      -76.0746   28.0673  -76.9993 H         1 UNK         0.0547 
    103 H103      -77.4073   27.6321  -79.0336 H         1 UNK         0.0837 
    104 H104      -77.6953   25.9729  -78.5344 H         1 UNK         0.0837 
    105 H105      -78.3841   27.3065  -77.6085 H         1 UNK         0.0837 
    106 H106      -77.3282   25.7312  -76.0086 H         1 UNK         0.3020 
    107 H107      -74.9900   24.9811  -73.4127 H         1 UNK         0.1245 
    108 H108      -77.9069   25.8848  -73.1985 H         1 UNK         0.0781 
    109 H109      -76.5748   26.9013  -72.7098 H         1 UNK         0.0781 
    110 H110      -77.3812   25.8169  -69.0844 H         1 UNK         0.0836 
    111 H111      -78.7389   25.8212  -70.1802 H         1 UNK         0.0836 
    112 H112      -77.5044   23.9530  -74.5567 H         1 UNK         0.3022 
    113 H113      -75.9066   21.2916  -76.2455 H         1 UNK         0.0747 
    114 H114      -77.3138   19.8192  -74.8218 H         1 UNK         0.0793 
    115 H115      -75.9170   20.3799  -73.9185 H         1 UNK         0.0793 
    116 H116      -77.4920   21.1032  -73.6242 H         1 UNK         0.0793 
    117 H117      -78.6609   21.8444  -75.6998 H         1 UNK         0.3047 
    118 H118      -79.1764   24.1470  -78.3754 H         1 UNK         0.0822 
    119 H119      -80.8124   22.4416  -79.0712 H         1 UNK         0.0807 
    120 H120      -80.0622   21.2359  -78.0247 H         1 UNK         0.0807 
    121 H121      -79.1904   21.8680  -79.4144 H         1 UNK         0.0807 
    122 H122      -81.1438   23.1727  -76.7355 H         1 UNK         0.2946 
    123 H123      -82.1561   24.7325  -75.3740 H         1 UNK         0.1144 
    124 H124      -81.2922   22.8276  -73.9748 H         1 UNK         0.0793 
    125 H125      -82.0929   24.0239  -72.9726 H         1 UNK         0.0793 
    126 H126      -80.3312   23.9495  -73.0215 H         1 UNK         0.0793 
    127 H127      -81.1031   26.3014  -73.2712 H         1 UNK         0.2896 
@<TRIPOS>BOND
     1    1    2 1    
     2    1   67 1    
     3    1   68 1    
     4    1   69 1    
     5    2    3 2    
     6    2    4 am   BACKBONE|DICT|INTERRES
     7    4    5 1    
     8    4   70 1    
     9    5    6 1    
    10    5   65 1    
    11    5   71 1    
    12    6    7 1    
    13    6   72 1    
    14    6   73 1    
    15    7    8 1    
    16    8    9 1    
    17    8   74 1    
    18    8   75 1    
    19    9   10 ar   
    20    9   14 ar   
    21   10   11 ar   
    22   10   76 1    
    23   11   12 ar   
    24   11   48 1    
    25   12   13 ar   
    26   12   77 1    
    27   13   14 ar   
    28   13   15 1    
    29   14   78 1    
    30   15   16 1    
    31   15   79 1    
    32   15   80 1    
    33   16   17 1    
    34   17   18 1    
    35   17   81 1    
    36   17   82 1    
    37   18   19 1    
    38   18   22 1    
    39   18   83 1    
    40   19   20 am   BACKBONE|DICT|INTERRES
    41   19   21 2    
    42   20   84 1    
    43   20   85 1    
    44   22   23 am   BACKBONE|DICT|INTERRES
    45   22   86 1    
    46   23   24 2    
    47   23   25 1    
    48   25   26 1    
    49   25   27 1    
    50   25   87 1    
    51   26   88 1    
    52   26   89 1    
    53   26   90 1    
    54   27   28 am   BACKBONE|DICT|INTERRES
    55   27   91 1    
    56   28   29 2    
    57   28   30 1    
    58   30   31 1    
    59   30   32 1    
    60   30   92 1    
    61   31   93 1    
    62   31   94 1    
    63   31   95 1    
    64   32   33 am   BACKBONE|DICT|INTERRES
    65   32   96 1    
    66   33   34 2    
    67   33   35 1    
    68   35   36 1    
    69   35   37 1    
    70   35   97 1    
    71   36   98 1    
    72   36   99 1    
    73   36  100 1    
    74   37   38 am   BACKBONE|DICT|INTERRES
    75   37  101 1    
    76   38   39 2    
    77   38   40 1    
    78   40   41 1    
    79   40   42 1    
    80   40  102 1    
    81   41  103 1    
    82   41  104 1    
    83   41  105 1    
    84   42   43 am   BACKBONE|DICT|INTERRES
    85   42  106 1    
    86   43   44 2    
    87   43   45 1    
    88   45   46 1    
    89   45   49 1    
    90   45  107 1    
    91   46   47 1    
    92   46  108 1    
    93   46  109 1    
    94   47   48 1    
    95   48  110 1    
    96   48  111 1    
    97   49   50 am   BACKBONE|DICT|INTERRES
    98   49  112 1    
    99   50   51 2    
   100   50   52 1    
   101   52   53 1    
   102   52   54 1    
   103   52  113 1    
   104   53  114 1    
   105   53  115 1    
   106   53  116 1    
   107   54   55 am   BACKBONE|DICT|INTERRES
   108   54  117 1    
   109   55   56 2    
   110   55   57 1    
   111   57   58 1    
   112   57   59 1    
   113   57  118 1    
   114   58  119 1    
   115   58  120 1    
   116   58  121 1    
   117   59   60 am   BACKBONE|DICT|INTERRES
   118   59  122 1    
   119   60   61 2    
   120   60   62 1    
   121   62   63 1    
   122   62   64 1    
   123   62  123 1    
   124   63  124 1    
   125   63  125 1    
   126   63  126 1    
   127   64   65 am   BACKBONE|DICT|INTERRES
   128   64  127 1    
   129   65   66 2    
@<TRIPOS>SUBSTRUCTURE
     1 UNK         1 GROUP             0       ****    0 ROOT    
