@<TRIPOS>MOLECULE
3R135
127   129    1
SMALL
USER_CHARGES


@<TRIPOS>ATOM
      1 CA        -79.5157   31.1874  -76.8843 C.3       0 UNK        -0.1998 
      2 C         -79.6684   29.9303  -76.0418 C.2       0 UNK         0.4909 
      3 O         -78.8252   29.0385  -76.1179 O.2       0 UNK        -0.5240 
      4 N         -80.7306   29.8596  -75.2320 N.am      1 UNK        -0.4739 
      5 CA        -81.0530   28.7153  -74.3722 C.3       1 UNK         0.0864 
      6 C6        -82.0412   29.0998  -73.2366 C.3       11 UNK        -0.0881 
      7 S7        -81.5695   30.6118  -72.3240 S.3       11 UNK        -0.2682 
      8 C8        -80.7358   29.9379  -70.8481 C.3       11 UNK         0.0289 
      9 C9        -79.4573   29.1646  -71.1599 C.ar      11 UNK        -0.0687 
     10 C10       -79.1871   27.9746  -70.4781 C.ar      11 UNK        -0.0823 
     11 C11       -78.0154   27.2521  -70.7245 C.ar      11 UNK        -0.0830 
     12 C12       -77.1131   27.7340  -71.6821 C.ar      11 UNK        -0.1021 
     13 C13       -77.3744   28.9132  -72.3849 C.ar      11 UNK        -0.0753 
     14 C14       -78.5345   29.6366  -72.0997 C.ar      11 UNK        -0.0933 
     15 C15       -76.4252   29.3956  -73.4733 C.3       11 UNK         0.0166 
     16 S16       -74.9066   30.1241  -72.7852 S.3       11 UNK        -0.2615 
     17 C17       -73.7442   28.7181  -72.8987 C.3       11 UNK        -0.0865 
     18 CA        -72.2624   29.1757  -72.9458 C.3       10 UNK         0.0862 
     19 C         -71.2892   27.9604  -72.8983 C.2       10 UNK         0.5551 
     20 N         -70.3888   27.7763  -73.8582 N.am      10 UNK        -0.7319 
     21 O         -71.3426   27.1727  -71.9573 O.2       10 UNK        -0.5018 
     22 N         -72.0067   30.0999  -74.0624 N.am      10 UNK        -0.4509 
     23 C         -71.0465   31.0349  -74.0669 C.2       10 UNK         0.4899 
     24 O         -70.3296   31.2762  -73.0940 O.2       10 UNK        -0.4839 
     25 CA        -70.8491   31.8360  -75.3735 C.3       9 UNK         0.0222 
     26 CB        -69.4190   32.4023  -75.5089 C.3       9 UNK        -0.1966 
     27 N         -71.2260   31.0994  -76.5879 N.am      9 UNK        -0.4218 
     28 C         -70.7352   29.9222  -77.0009 C.2       9 UNK         0.5020 
     29 O         -69.8564   29.2864  -76.4130 O.2       9 UNK        -0.5274 
     30 CA        -71.3726   29.3312  -78.2689 C.3       8 UNK         0.0270 
     31 CB        -70.3533   29.2760  -79.4187 C.3       8 UNK        -0.1976 
     32 N         -71.9064   27.9896  -78.0224 N.am      8 UNK        -0.4313 
     33 C         -72.8589   27.6970  -77.1271 C.2       8 UNK         0.5041 
     34 O         -73.4178   28.5397  -76.4175 O.2       8 UNK        -0.5577 
     35 CA        -73.2132   26.2092  -76.9828 C.3       7 UNK         0.0284 
     36 CB        -72.2142   25.5025  -76.0525 C.3       7 UNK        -0.1958 
     37 N         -74.5514   26.0529  -76.4239 N.am      7 UNK        -0.4454 
     38 C         -75.6995   26.0953  -77.1038 C.2       7 UNK         0.5089 
     39 O         -75.7539   26.1598  -78.3338 O.2       7 UNK        -0.5125 
     40 CA        -76.9984   26.0531  -76.2653 C.3       6 UNK         0.0408 
     41 CB        -78.2571   25.9268  -77.1425 C.3       6 UNK        -0.1791 
     42 N         -77.0249   24.9953  -75.2465 N.am      6 UNK        -0.4762 
     43 C         -76.3026   24.9594  -74.1145 C.2       6 UNK         0.5007 
     44 O         -75.4695   25.8159  -73.8186 O.2       6 UNK        -0.5032 
     45 CA        -76.5045   23.7539  -73.1724 C.3       5 UNK         0.0783 
     46 C46       -77.4417   24.0976  -71.9854 C.3       11 UNK        -0.0857 
     47 S47       -76.5268   24.8230  -70.5853 S.3       11 UNK        -0.2512 
     48 C48       -77.7559   25.9877  -69.9014 C.3       11 UNK         0.0225 
     49 N         -76.9634   22.5616  -73.8873 N.am      5 UNK        -0.4615 
     50 C         -76.2081   21.8302  -74.7192 C.2       4 UNK         0.5053 
     51 O         -75.0164   22.0551  -74.9310 O.2       4 UNK        -0.5105 
     52 CA        -76.8853   20.6465  -75.4372 C.3       4 UNK         0.0263 
     53 CB        -76.4097   19.3118  -74.8396 C.3       4 UNK        -0.1981 
     54 N         -78.3509   20.6905  -75.3993 N.am      4 UNK        -0.4224 
     55 C         -79.1089   21.5964  -76.0317 C.2       3 UNK         0.4895 
     56 O         -78.6460   22.4724  -76.7649 O.2       3 UNK        -0.5091 
     57 CA        -80.6321   21.5137  -75.8036 C.3       3 UNK         0.0250 
     58 CB        -81.0283   20.8025  -74.4881 C.3       3 UNK        -0.1996 
     59 N         -81.2884   22.8241  -75.8854 N.am      3 UNK        -0.4254 
     60 C         -81.0490   23.9050  -75.1278 C.2       2 UNK         0.5004 
     61 O         -80.1987   23.9650  -74.2341 O.2       2 UNK        -0.5226 
     62 CA        -81.9505   25.1130  -75.4085 C.3       2 UNK         0.0269 
     63 CB        -83.3798   24.8663  -74.8853 C.3       2 UNK        -0.1926 
     64 N         -81.4031   26.3148  -74.7809 N.am      2 UNK        -0.4687 
     65 C         -81.6368   27.5602  -75.2103 C.2       1 UNK         0.5165 
     66 O         -82.3309   27.8160  -76.1989 O.2       1 UNK        -0.5079 
     67 H67       -80.3207   31.8997  -76.7037 H         1 UNK         0.0900 
     68 H68       -78.5703   31.6784  -76.6554 H         1 UNK         0.0900 
     69 H69       -79.5197   30.9310  -77.9433 H         1 UNK         0.0900 
     70 H70       -81.4002   30.6150  -75.2151 H         1 UNK         0.2959 
     71 H71       -80.1245   28.3595  -73.9220 H         1 UNK         0.1079 
     72 H72       -82.1489   28.2741  -72.5306 H         1 UNK         0.0837 
     73 H73       -83.0389   29.2751  -73.6448 H         1 UNK         0.0837 
     74 H74       -80.4844   30.7653  -70.1835 H         1 UNK         0.0685 
     75 H75       -81.4454   29.3113  -70.3055 H         1 UNK         0.0685 
     76 H76       -79.8876   27.6148  -69.7364 H         1 UNK         0.1434 
     77 H77       -76.1969   27.2016  -71.8841 H         1 UNK         0.1329 
     78 H78       -78.7328   30.5571  -72.6313 H         1 UNK         0.1335 
     79 H79       -76.1868   28.5715  -74.1462 H         1 UNK         0.0680 
     80 H80       -76.9154   30.1480  -74.0929 H         1 UNK         0.0680 
     81 H81       -73.9733   28.1234  -73.7845 H         1 UNK         0.1032 
     82 H82       -73.9199   28.0660  -72.0411 H         1 UNK         0.1032 
     83 H83       -72.0796   29.7226  -72.0188 H         1 UNK         0.0461 
     84 H84       -69.7622   26.9905  -73.7965 H         1 UNK         0.3453 
     85 H85       -70.3145   28.4170  -74.6410 H         1 UNK         0.3453 
     86 H86       -72.5359   29.9215  -74.9081 H         1 UNK         0.2984 
     87 H87       -71.5333   32.6831  -75.3093 H         1 UNK         0.0554 
     88 H88       -69.1790   33.0683  -74.6791 H         1 UNK         0.0847 
     89 H89       -69.3049   32.9795  -76.4264 H         1 UNK         0.0847 
     90 H90       -68.6701   31.6096  -75.5159 H         1 UNK         0.0847 
     91 H91       -71.9726   31.5143  -77.1293 H         1 UNK         0.3141 
     92 H92       -72.2059   29.9647  -78.5804 H         1 UNK         0.0743 
     93 H93       -69.5074   28.6304  -79.1781 H         1 UNK         0.0784 
     94 H94       -70.8086   28.9062  -80.3377 H         1 UNK         0.0784 
     95 H95       -69.9539   30.2684  -79.6329 H         1 UNK         0.0784 
     96 H96       -71.4716   27.2340  -78.5320 H         1 UNK         0.3213 
     97 H97       -73.1775   25.7387  -77.9679 H         1 UNK         0.0855 
     98 H98       -72.2477   25.9128  -75.0427 H         1 UNK         0.0814 
     99 H99       -71.1907   25.6081  -76.4143 H         1 UNK         0.0814 
    100 H100      -72.4260   24.4352  -75.9838 H         1 UNK         0.0814 
    101 H101      -74.6273   26.0440  -75.4092 H         1 UNK         0.3105 
    102 H102      -77.0600   27.0099  -75.7448 H         1 UNK         0.0547 
    103 H103      -78.2637   24.9952  -77.7090 H         1 UNK         0.0837 
    104 H104      -78.3187   26.7479  -77.8578 H         1 UNK         0.0837 
    105 H105      -79.1632   25.9641  -76.5402 H         1 UNK         0.0837 
    106 H106      -77.6507   24.2212  -75.4316 H         1 UNK         0.3020 
    107 H107      -75.5171   23.5092  -72.7726 H         1 UNK         0.1245 
    108 H108      -77.9217   23.1952  -71.6033 H         1 UNK         0.0781 
    109 H109      -78.2571   24.7554  -72.2948 H         1 UNK         0.0781 
    110 H110      -77.4144   26.2948  -68.9121 H         1 UNK         0.0836 
    111 H111      -78.6913   25.4470  -69.7475 H         1 UNK         0.0836 
    112 H112      -77.9397   22.3252  -73.7846 H         1 UNK         0.3022 
    113 H113      -76.5740   20.6841  -76.4834 H         1 UNK         0.0747 
    114 H114      -76.8189   18.4625  -75.3871 H         1 UNK         0.0793 
    115 H115      -75.3227   19.2288  -74.8844 H         1 UNK         0.0793 
    116 H116      -76.7007   19.2109  -73.7932 H         1 UNK         0.0793 
    117 H117      -78.8089   20.0013  -74.8203 H         1 UNK         0.3047 
    118 H118      -81.0271   20.9241  -76.6322 H         1 UNK         0.0822 
    119 H119      -82.1093   20.8159  -74.3471 H         1 UNK         0.0807 
    120 H120      -80.5790   21.2782  -73.6152 H         1 UNK         0.0807 
    121 H121      -80.7288   19.7539  -74.4899 H         1 UNK         0.0807 
    122 H122      -81.9892   22.9024  -76.6091 H         1 UNK         0.2946 
    123 H123      -81.9786   25.2562  -76.4916 H         1 UNK         0.1144 
    124 H124      -83.8225   23.9780  -75.3375 H         1 UNK         0.0793 
    125 H125      -84.0392   25.7031  -75.1165 H         1 UNK         0.0793 
    126 H126      -83.3906   24.7218  -73.8042 H         1 UNK         0.0793 
    127 H127      -80.7867   26.1386  -73.9970 H         1 UNK         0.2896 
@<TRIPOS>BOND
     1    1    2 1    
     2    1   67 1    
     3    1   68 1    
     4    1   69 1    
     5    2    3 2    
     6    2    4 am   BACKBONE|DICT|INTERRES
     7    4    5 1    
     8    4   70 1    
     9    5    6 1    
    10    5   65 1    
    11    5   71 1    
    12    6    7 1    
    13    6   72 1    
    14    6   73 1    
    15    7    8 1    
    16    8    9 1    
    17    8   74 1    
    18    8   75 1    
    19    9   10 ar   
    20    9   14 ar   
    21   10   11 ar   
    22   10   76 1    
    23   11   12 ar   
    24   11   48 1    
    25   12   13 ar   
    26   12   77 1    
    27   13   14 ar   
    28   13   15 1    
    29   14   78 1    
    30   15   16 1    
    31   15   79 1    
    32   15   80 1    
    33   16   17 1    
    34   17   18 1    
    35   17   81 1    
    36   17   82 1    
    37   18   19 1    
    38   18   22 1    
    39   18   83 1    
    40   19   20 am   BACKBONE|DICT|INTERRES
    41   19   21 2    
    42   20   84 1    
    43   20   85 1    
    44   22   23 am   BACKBONE|DICT|INTERRES
    45   22   86 1    
    46   23   24 2    
    47   23   25 1    
    48   25   26 1    
    49   25   27 1    
    50   25   87 1    
    51   26   88 1    
    52   26   89 1    
    53   26   90 1    
    54   27   28 am   BACKBONE|DICT|INTERRES
    55   27   91 1    
    56   28   29 2    
    57   28   30 1    
    58   30   31 1    
    59   30   32 1    
    60   30   92 1    
    61   31   93 1    
    62   31   94 1    
    63   31   95 1    
    64   32   33 am   BACKBONE|DICT|INTERRES
    65   32   96 1    
    66   33   34 2    
    67   33   35 1    
    68   35   36 1    
    69   35   37 1    
    70   35   97 1    
    71   36   98 1    
    72   36   99 1    
    73   36  100 1    
    74   37   38 am   BACKBONE|DICT|INTERRES
    75   37  101 1    
    76   38   39 2    
    77   38   40 1    
    78   40   41 1    
    79   40   42 1    
    80   40  102 1    
    81   41  103 1    
    82   41  104 1    
    83   41  105 1    
    84   42   43 am   BACKBONE|DICT|INTERRES
    85   42  106 1    
    86   43   44 2    
    87   43   45 1    
    88   45   46 1    
    89   45   49 1    
    90   45  107 1    
    91   46   47 1    
    92   46  108 1    
    93   46  109 1    
    94   47   48 1    
    95   48  110 1    
    96   48  111 1    
    97   49   50 am   BACKBONE|DICT|INTERRES
    98   49  112 1    
    99   50   51 2    
   100   50   52 1    
   101   52   53 1    
   102   52   54 1    
   103   52  113 1    
   104   53  114 1    
   105   53  115 1    
   106   53  116 1    
   107   54   55 am   BACKBONE|DICT|INTERRES
   108   54  117 1    
   109   55   56 2    
   110   55   57 1    
   111   57   58 1    
   112   57   59 1    
   113   57  118 1    
   114   58  119 1    
   115   58  120 1    
   116   58  121 1    
   117   59   60 am   BACKBONE|DICT|INTERRES
   118   59  122 1    
   119   60   61 2    
   120   60   62 1    
   121   62   63 1    
   122   62   64 1    
   123   62  123 1    
   124   63  124 1    
   125   63  125 1    
   126   63  126 1    
   127   64   65 am   BACKBONE|DICT|INTERRES
   128   64  127 1    
   129   65   66 2    
@<TRIPOS>SUBSTRUCTURE
     1 UNK         1 GROUP             0       ****    0 ROOT    
