@<TRIPOS>MOLECULE
3R135
127   129    1
SMALL
USER_CHARGES


@<TRIPOS>ATOM
      1 CA        -81.3839   26.2434  -69.7428 C.3       0 UNK        -0.1998 
      2 C         -82.0838   26.6893  -71.0177 C.2       0 UNK         0.4909 
      3 O         -83.2908   26.4923  -71.1578 O.2       0 UNK        -0.5240 
      4 N         -81.3306   27.2827  -71.9519 N.am      1 UNK        -0.4739 
      5 CA        -81.8235   27.7604  -73.2514 C.3       1 UNK         0.0864 
      6 C6        -80.9269   28.8978  -73.8011 C.3       11 UNK        -0.0881 
      7 S7        -81.1683   30.4826  -72.9189 S.3       11 UNK        -0.2682 
      8 C8        -80.0428   30.3911  -71.4819 C.3       11 UNK         0.0289 
      9 C9        -78.6307   29.9585  -71.8501 C.ar      11 UNK        -0.0687 
     10 C10       -78.0861   28.8000  -71.2885 C.ar      11 UNK        -0.0823 
     11 C11       -76.8223   28.3479  -71.6787 C.ar      11 UNK        -0.0830 
     12 C12       -76.0863   29.0876  -72.6078 C.ar      11 UNK        -0.1021 
     13 C13       -76.6023   30.2694  -73.1455 C.ar      11 UNK        -0.0753 
     14 C14       -77.8760   30.6997  -72.7648 C.ar      11 UNK        -0.0933 
     15 C15       -75.7992   31.0611  -74.1654 C.3       11 UNK         0.0166 
     16 S16       -75.0272   32.5467  -73.4447 S.3       11 UNK        -0.2615 
     17 C17       -73.7876   31.8626  -72.2861 C.3       11 UNK        -0.0865 
     18 CA        -72.3436   31.8710  -72.8746 C.3       10 UNK         0.0862 
     19 C         -71.2111   31.5936  -71.8348 C.2       10 UNK         0.5551 
     20 N         -71.4221   31.8632  -70.5526 N.am      10 UNK        -0.7319 
     21 O         -70.1044   31.1927  -72.1916 O.2       10 UNK        -0.5018 
     22 N         -72.2375   31.0377  -74.0847 N.am      10 UNK        -0.4509 
     23 C         -72.2992   29.6997  -74.1318 C.2       10 UNK         0.4899 
     24 O         -72.4380   28.9808  -73.1393 O.2       10 UNK        -0.4839 
     25 CA        -72.2769   29.0867  -75.5442 C.3       9 UNK         0.0222 
     26 CB        -71.1106   29.6089  -76.4132 C.3       9 UNK        -0.1966 
     27 N         -72.3240   27.6219  -75.5289 N.am      9 UNK        -0.4218 
     28 C         -71.3589   26.7547  -75.1899 C.2       9 UNK         0.5020 
     29 O         -70.2239   27.0739  -74.8313 O.2       9 UNK        -0.5274 
     30 CA        -71.7130   25.2584  -75.2966 C.3       8 UNK         0.0270 
     31 CB        -72.2115   24.7227  -73.9444 C.3       8 UNK        -0.1976 
     32 N         -72.7066   24.9712  -76.3388 N.am      8 UNK        -0.4313 
     33 C         -72.4880   25.1074  -77.6558 C.2       8 UNK         0.5041 
     34 O         -71.3940   25.4002  -78.1408 O.2       8 UNK        -0.5577 
     35 CA        -73.6902   24.9025  -78.5946 C.3       7 UNK         0.0284 
     36 CB        -73.9036   23.4091  -78.8879 C.3       7 UNK        -0.1958 
     37 N         -74.9285   25.4913  -78.0766 N.am      7 UNK        -0.4454 
     38 C         -75.1435   26.8067  -77.9231 C.2       7 UNK         0.5089 
     39 O         -74.3443   27.6773  -78.2667 O.2       7 UNK        -0.5125 
     40 CA        -76.4546   27.2255  -77.2314 C.3       6 UNK         0.0408 
     41 CB        -77.6152   27.2801  -78.2362 C.3       6 UNK        -0.1791 
     42 N         -76.8146   26.3549  -76.1098 N.am      6 UNK        -0.4762 
     43 C         -76.0676   26.1810  -75.0098 C.2       6 UNK         0.5007 
     44 O         -75.0052   26.7664  -74.8062 O.2       6 UNK        -0.5032 
     45 CA        -76.5658   25.1303  -73.9996 C.3       5 UNK         0.0783 
     46 C46       -77.7293   25.6813  -73.1284 C.3       11 UNK        -0.0857 
     47 S47       -77.3717   25.6219  -71.3431 S.3       11 UNK        -0.2512 
     48 C48       -76.2544   27.0495  -71.1196 C.3       11 UNK         0.0225 
     49 N         -76.9374   23.8920  -74.6880 N.am      5 UNK        -0.4615 
     50 C         -76.0844   23.0772  -75.3220 C.2       4 UNK         0.5053 
     51 O         -74.8665   23.2477  -75.3474 O.2       4 UNK        -0.5105 
     52 CA        -76.7027   21.8972  -76.0921 C.3       4 UNK         0.0263 
     53 CB        -76.8935   20.6886  -75.1626 C.3       4 UNK        -0.1981 
     54 N         -77.9827   22.2414  -76.7191 N.am      4 UNK        -0.4224 
     55 C         -78.1212   23.1263  -77.7177 C.2       3 UNK         0.4895 
     56 O         -77.1756   23.6923  -78.2638 O.2       3 UNK        -0.5091 
     57 CA        -79.5580   23.4837  -78.1388 C.3       3 UNK         0.0250 
     58 CB        -80.0789   22.4854  -79.1847 C.3       3 UNK        -0.1996 
     59 N         -80.4969   23.5564  -77.0120 N.am      3 UNK        -0.4254 
     60 C         -80.3788   24.4019  -75.9784 C.2       2 UNK         0.5004 
     61 O         -79.4578   25.2146  -75.8649 O.2       2 UNK        -0.5226 
     62 CA        -81.4180   24.2566  -74.8540 C.3       2 UNK         0.0269 
     63 CB        -81.1142   23.0119  -74.0015 C.3       2 UNK        -0.1926 
     64 N         -81.4377   25.4264  -73.9736 N.am      2 UNK        -0.4687 
     65 C         -81.9677   26.6178  -74.2848 C.2       1 UNK         0.5165 
     66 O         -82.5664   26.8338  -75.3401 O.2       1 UNK        -0.5079 
     67 H67       -81.5856   25.1896  -69.5528 H         1 UNK         0.0900 
     68 H68       -81.7502   26.8190  -68.8933 H         1 UNK         0.0900 
     69 H69       -80.3034   26.3729  -69.8020 H         1 UNK         0.0900 
     70 H70       -80.3444   27.4170  -71.7873 H         1 UNK         0.2959 
     71 H71       -82.8304   28.1616  -73.1134 H         1 UNK         0.1079 
     72 H72       -81.1692   29.1029  -74.8460 H         1 UNK         0.0837 
     73 H73       -79.8755   28.6069  -73.8032 H         1 UNK         0.0837 
     74 H74       -79.9988   31.3732  -71.0095 H         1 UNK         0.0685 
     75 H75       -80.4764   29.7187  -70.7406 H         1 UNK         0.0685 
     76 H76       -78.6526   28.2301  -70.5656 H         1 UNK         0.1434 
     77 H77       -75.1103   28.7402  -72.9194 H         1 UNK         0.1329 
     78 H78       -78.2891   31.6018  -73.1952 H         1 UNK         0.1335 
     79 H79       -76.4599   31.3723  -74.9758 H         1 UNK         0.0680 
     80 H80       -75.0383   30.4334  -74.6277 H         1 UNK         0.0680 
     81 H81       -74.0694   30.8603  -71.9642 H         1 UNK         0.1032 
     82 H82       -73.8445   32.4864  -71.3938 H         1 UNK         0.1032 
     83 H83       -72.1428   32.8876  -73.2144 H         1 UNK         0.0461 
     84 H84       -72.3048   32.2222  -70.2268 H         1 UNK         0.3453 
     85 H85       -70.6756   31.7035  -69.8940 H         1 UNK         0.3453 
     86 H86       -72.1111   31.5461  -74.9471 H         1 UNK         0.2984 
     87 H87       -73.2071   29.3915  -76.0258 H         1 UNK         0.0554 
     88 H88       -71.0677   29.0878  -77.3699 H         1 UNK         0.0847 
     89 H89       -70.1467   29.4815  -75.9194 H         1 UNK         0.0847 
     90 H90       -71.2223   30.6701  -76.6359 H         1 UNK         0.0847 
     91 H91       -73.2496   27.2297  -75.6717 H         1 UNK         0.3141 
     92 H92       -70.7972   24.7228  -75.5555 H         1 UNK         0.0743 
     93 H93       -73.1312   25.2156  -73.6287 H         1 UNK         0.0784 
     94 H94       -72.4030   23.6504  -73.9877 H         1 UNK         0.0784 
     95 H95       -71.4692   24.8890  -73.1626 H         1 UNK         0.0784 
     96 H96       -73.6153   24.6423  -76.0248 H         1 UNK         0.3213 
     97 H97       -73.4587   25.4012  -79.5383 H         1 UNK         0.0855 
     98 H98       -74.1487   22.8502  -77.9849 H         1 UNK         0.0814 
     99 H99       -73.0033   22.9631  -79.3127 H         1 UNK         0.0814 
    100 H100      -74.7103   23.2567  -79.6052 H         1 UNK         0.0814 
    101 H101      -75.6842   24.8489  -77.8527 H         1 UNK         0.3105 
    102 H102      -76.3094   28.2300  -76.8280 H         1 UNK         0.0547 
    103 H103      -77.3945   27.9749  -79.0475 H         1 UNK         0.0837 
    104 H104      -77.8074   26.3060  -78.6857 H         1 UNK         0.0837 
    105 H105      -78.5367   27.6167  -77.7608 H         1 UNK         0.0837 
    106 H106      -77.7024   25.8604  -76.1715 H         1 UNK         0.3020 
    107 H107      -75.7122   24.8935  -73.3603 H         1 UNK         0.1245 
    108 H108      -78.6344   25.0936  -73.2785 H         1 UNK         0.0781 
    109 H109      -78.0224   26.6960  -73.4044 H         1 UNK         0.0781 
    110 H110      -75.2951   26.8166  -71.5852 H         1 UNK         0.0836 
    111 H111      -76.0544   27.1794  -70.0553 H         1 UNK         0.0836 
    112 H112      -77.9259   23.7153  -74.7795 H         1 UNK         0.3022 
    113 H113      -76.0049   21.6138  -76.8826 H         1 UNK         0.0747 
    114 H114      -77.2590   19.8201  -75.7110 H         1 UNK         0.0793 
    115 H115      -75.9485   20.4020  -74.6987 H         1 UNK         0.0793 
    116 H116      -77.5997   20.9009  -74.3588 H         1 UNK         0.0793 
    117 H117      -78.8125   21.8100  -76.3394 H         1 UNK         0.3047 
    118 H118      -79.5245   24.4727  -78.6004 H         1 UNK         0.0822 
    119 H119      -81.0562   22.7829  -79.5653 H         1 UNK         0.0807 
    120 H120      -80.1692   21.4782  -78.7758 H         1 UNK         0.0807 
    121 H121      -79.4041   22.4304  -80.0403 H         1 UNK         0.0807 
    122 H122      -81.2752   22.9126  -77.0307 H         1 UNK         0.2946 
    123 H123      -82.4051   24.1472  -75.3094 H         1 UNK         0.1144 
    124 H124      -80.1297   23.0667  -73.5352 H         1 UNK         0.0793 
    125 H125      -81.1403   22.1023  -74.6027 H         1 UNK         0.0793 
    126 H126      -81.8514   22.8885  -73.2077 H         1 UNK         0.0793 
    127 H127      -80.9638   25.3401  -73.0878 H         1 UNK         0.2896 
@<TRIPOS>BOND
     1    1    2 1    
     2    1   67 1    
     3    1   68 1    
     4    1   69 1    
     5    2    3 2    
     6    2    4 am   BACKBONE|DICT|INTERRES
     7    4    5 1    
     8    4   70 1    
     9    5    6 1    
    10    5   65 1    
    11    5   71 1    
    12    6    7 1    
    13    6   72 1    
    14    6   73 1    
    15    7    8 1    
    16    8    9 1    
    17    8   74 1    
    18    8   75 1    
    19    9   10 ar   
    20    9   14 ar   
    21   10   11 ar   
    22   10   76 1    
    23   11   12 ar   
    24   11   48 1    
    25   12   13 ar   
    26   12   77 1    
    27   13   14 ar   
    28   13   15 1    
    29   14   78 1    
    30   15   16 1    
    31   15   79 1    
    32   15   80 1    
    33   16   17 1    
    34   17   18 1    
    35   17   81 1    
    36   17   82 1    
    37   18   19 1    
    38   18   22 1    
    39   18   83 1    
    40   19   20 am   BACKBONE|DICT|INTERRES
    41   19   21 2    
    42   20   84 1    
    43   20   85 1    
    44   22   23 am   BACKBONE|DICT|INTERRES
    45   22   86 1    
    46   23   24 2    
    47   23   25 1    
    48   25   26 1    
    49   25   27 1    
    50   25   87 1    
    51   26   88 1    
    52   26   89 1    
    53   26   90 1    
    54   27   28 am   BACKBONE|DICT|INTERRES
    55   27   91 1    
    56   28   29 2    
    57   28   30 1    
    58   30   31 1    
    59   30   32 1    
    60   30   92 1    
    61   31   93 1    
    62   31   94 1    
    63   31   95 1    
    64   32   33 am   BACKBONE|DICT|INTERRES
    65   32   96 1    
    66   33   34 2    
    67   33   35 1    
    68   35   36 1    
    69   35   37 1    
    70   35   97 1    
    71   36   98 1    
    72   36   99 1    
    73   36  100 1    
    74   37   38 am   BACKBONE|DICT|INTERRES
    75   37  101 1    
    76   38   39 2    
    77   38   40 1    
    78   40   41 1    
    79   40   42 1    
    80   40  102 1    
    81   41  103 1    
    82   41  104 1    
    83   41  105 1    
    84   42   43 am   BACKBONE|DICT|INTERRES
    85   42  106 1    
    86   43   44 2    
    87   43   45 1    
    88   45   46 1    
    89   45   49 1    
    90   45  107 1    
    91   46   47 1    
    92   46  108 1    
    93   46  109 1    
    94   47   48 1    
    95   48  110 1    
    96   48  111 1    
    97   49   50 am   BACKBONE|DICT|INTERRES
    98   49  112 1    
    99   50   51 2    
   100   50   52 1    
   101   52   53 1    
   102   52   54 1    
   103   52  113 1    
   104   53  114 1    
   105   53  115 1    
   106   53  116 1    
   107   54   55 am   BACKBONE|DICT|INTERRES
   108   54  117 1    
   109   55   56 2    
   110   55   57 1    
   111   57   58 1    
   112   57   59 1    
   113   57  118 1    
   114   58  119 1    
   115   58  120 1    
   116   58  121 1    
   117   59   60 am   BACKBONE|DICT|INTERRES
   118   59  122 1    
   119   60   61 2    
   120   60   62 1    
   121   62   63 1    
   122   62   64 1    
   123   62  123 1    
   124   63  124 1    
   125   63  125 1    
   126   63  126 1    
   127   64   65 am   BACKBONE|DICT|INTERRES
   128   64  127 1    
   129   65   66 2    
@<TRIPOS>SUBSTRUCTURE
     1 UNK         1 GROUP             0       ****    0 ROOT    
