@<TRIPOS>MOLECULE
3R135
127   129    1
SMALL
USER_CHARGES


@<TRIPOS>ATOM
      1 CA        -83.9485   24.1673  -74.6162 C.3       0 UNK        -0.1998 
      2 C         -83.0634   25.2512  -75.2109 C.2       0 UNK         0.4909 
      3 O         -82.9000   25.3046  -76.4307 O.2       0 UNK        -0.5240 
      4 N         -82.4835   26.1114  -74.3618 N.am      1 UNK        -0.4739 
      5 CA        -81.5684   27.1928  -74.7426 C.3       1 UNK         0.0864 
      6 C6        -81.2132   28.1225  -73.5500 C.3       11 UNK        -0.0881 
      7 S7        -80.6351   27.2580  -72.0463 S.3       11 UNK        -0.2682 
      8 C8        -80.0115   28.6400  -71.0317 C.3       11 UNK         0.0289 
      9 C9        -78.4895   28.6619  -70.9434 C.ar      11 UNK        -0.0687 
     10 C10       -77.8061   27.5610  -70.4199 C.ar      11 UNK        -0.0823 
     11 C11       -76.4133   27.5720  -70.2997 C.ar      11 UNK        -0.0830 
     12 C12       -75.7013   28.7135  -70.6815 C.ar      11 UNK        -0.1021 
     13 C13       -76.3734   29.8354  -71.1780 C.ar      11 UNK        -0.0753 
     14 C14       -77.7657   29.7980  -71.3204 C.ar      11 UNK        -0.0933 
     15 C15       -75.6086   31.1101  -71.5087 C.3       11 UNK         0.0166 
     16 S16       -75.1370   31.1896  -73.2616 S.3       11 UNK        -0.2615 
     17 C17       -73.5624   30.2645  -73.2858 C.3       11 UNK        -0.0865 
     18 CA        -72.4470   31.0512  -74.0235 C.3       10 UNK         0.0862 
     19 C         -71.6970   32.0301  -73.0777 C.2       10 UNK         0.5551 
     20 N         -72.2472   33.2147  -72.8516 N.am      10 UNK        -0.7319 
     21 O         -70.6458   31.7148  -72.5225 O.2       10 UNK        -0.5018 
     22 N         -71.5435   30.1330  -74.7262 N.am      10 UNK        -0.4509 
     23 C         -70.7034   30.4713  -75.7087 C.2       10 UNK         0.4899 
     24 O         -70.6171   31.6099  -76.1702 O.2       10 UNK        -0.4839 
     25 CA        -69.8206   29.3595  -76.3097 C.3       9 UNK         0.0222 
     26 CB        -68.4552   29.2977  -75.5973 C.3       9 UNK        -0.1966 
     27 N         -70.4487   28.0299  -76.3882 N.am      9 UNK        -0.4218 
     28 C         -70.8069   27.1980  -75.4005 C.2       9 UNK         0.5020 
     29 O         -70.6969   27.4654  -74.2023 O.2       9 UNK        -0.5274 
     30 CA        -71.4381   25.8648  -75.8397 C.3       8 UNK         0.0270 
     31 CB        -71.5101   24.8408  -74.6914 C.3       8 UNK        -0.1976 
     32 N         -72.7813   26.0753  -76.3845 N.am      8 UNK        -0.4313 
     33 C         -73.0469   26.5417  -77.6147 C.2       8 UNK         0.5041 
     34 O         -72.1658   26.8293  -78.4277 O.2       8 UNK        -0.5577 
     35 CA        -74.5229   26.7284  -78.0187 C.3       7 UNK         0.0284 
     36 CB        -74.9938   25.5548  -78.8915 C.3       7 UNK        -0.1958 
     37 N         -75.4224   26.8702  -76.8723 N.am      7 UNK        -0.4454 
     38 C         -75.4819   27.9558  -76.0894 C.2       7 UNK         0.5089 
     39 O         -74.8766   28.9980  -76.3376 O.2       7 UNK        -0.5125 
     40 CA        -76.3325   27.8707  -74.8041 C.3       6 UNK         0.0408 
     41 CB        -77.5420   28.8131  -74.8855 C.3       6 UNK        -0.1791 
     42 N         -76.7629   26.5267  -74.3831 N.am      6 UNK        -0.4762 
     43 C         -75.9179   25.5424  -74.0347 C.2       6 UNK         0.5007 
     44 O         -74.7165   25.5688  -74.3023 O.2       6 UNK        -0.5032 
     45 CA        -76.4714   24.3281  -73.2654 C.3       5 UNK         0.0783 
     46 C46       -76.4794   24.5242  -71.7194 C.3       11 UNK        -0.0857 
     47 S47       -74.9816   25.2708  -70.9759 S.3       11 UNK        -0.2512 
     48 C48       -75.6867   26.3714  -69.7058 C.3       11 UNK         0.0225 
     49 N         -77.7932   23.9219  -73.7521 N.am      5 UNK        -0.4615 
     50 C         -78.3072   22.7038  -73.5365 C.2       4 UNK         0.5053 
     51 O         -77.6732   21.7717  -73.0407 O.2       4 UNK        -0.5105 
     52 CA        -79.7800   22.4869  -73.9028 C.3       4 UNK         0.0263 
     53 CB        -80.6977   23.1997  -72.8951 C.3       4 UNK        -0.1981 
     54 N         -80.0730   22.9495  -75.2573 N.am      4 UNK        -0.4224 
     55 C         -80.0277   22.1714  -76.3485 C.2       3 UNK         0.4895 
     56 O         -79.7446   20.9730  -76.3227 O.2       3 UNK        -0.5091 
     57 CA        -80.3718   22.8201  -77.7017 C.3       3 UNK         0.0250 
     58 CB        -81.8007   22.4468  -78.1296 C.3       3 UNK        -0.1996 
     59 N         -80.2362   24.2780  -77.6892 N.am      3 UNK        -0.4254 
     60 C         -79.0595   24.9181  -77.7496 C.2       2 UNK         0.5004 
     61 O         -77.9753   24.3499  -77.8730 O.2       2 UNK        -0.5226 
     62 CA        -79.0857   26.4485  -77.6026 C.3       2 UNK         0.0269 
     63 CB        -79.1638   27.1272  -78.9784 C.3       2 UNK        -0.1926 
     64 N         -80.1675   26.9463  -76.7460 N.am      2 UNK        -0.4687 
     65 C         -80.3191   26.6332  -75.4513 C.2       1 UNK         0.5165 
     66 O         -79.5414   25.8971  -74.8380 O.2       1 UNK        -0.5079 
     67 H67       -83.5596   23.1828  -74.8753 H         1 UNK         0.0900 
     68 H68       -84.0047   24.2372  -73.5301 H         1 UNK         0.0900 
     69 H69       -84.9593   24.2498  -75.0146 H         1 UNK         0.0900 
     70 H70       -82.6225   26.0050  -73.3666 H         1 UNK         0.2959 
     71 H71       -82.1060   27.8074  -75.4681 H         1 UNK         0.1079 
     72 H72       -80.4733   28.8664  -73.8490 H         1 UNK         0.0837 
     73 H73       -82.1000   28.6942  -73.2717 H         1 UNK         0.0837 
     74 H74       -80.4142   28.5359  -70.0234 H         1 UNK         0.0685 
     75 H75       -80.3958   29.5868  -71.4140 H         1 UNK         0.0685 
     76 H76       -78.3686   26.6945  -70.1002 H         1 UNK         0.1434 
     77 H77       -74.6263   28.7355  -70.5684 H         1 UNK         0.1329 
     78 H78       -78.2861   30.6655  -71.7025 H         1 UNK         0.1335 
     79 H79       -76.2331   31.9755  -71.2820 H         1 UNK         0.0680 
     80 H80       -74.7251   31.2083  -70.8759 H         1 UNK         0.0680 
     81 H81       -73.7558   29.3238  -73.8002 H         1 UNK         0.1032 
     82 H82       -73.2530   29.9820  -72.2780 H         1 UNK         0.1032 
     83 H83       -72.9151   31.6518  -74.8068 H         1 UNK         0.0461 
     84 H84       -73.1256   33.4640  -73.2794 H         1 UNK         0.3453 
     85 H85       -71.7866   33.8629  -72.2323 H         1 UNK         0.3453 
     86 H86       -71.4700   29.1876  -74.3620 H         1 UNK         0.2984 
     87 H87       -69.6320   29.6457  -77.3456 H         1 UNK         0.0554 
     88 H88       -67.9498   30.2633  -75.6431 H         1 UNK         0.0847 
     89 H89       -67.7962   28.5649  -76.0628 H         1 UNK         0.0847 
     90 H90       -68.5558   29.0380  -74.5429 H         1 UNK         0.0847 
     91 H91       -70.7080   27.7305  -77.3248 H         1 UNK         0.3141 
     92 H92       -70.8033   25.4380  -76.6194 H         1 UNK         0.0743 
     93 H93       -70.5153   24.6269  -74.2985 H         1 UNK         0.0784 
     94 H94       -72.1156   25.2035  -73.8598 H         1 UNK         0.0784 
     95 H95       -71.9369   23.8958  -75.0277 H         1 UNK         0.0784 
     96 H96       -73.5522   25.9061  -75.7407 H         1 UNK         0.3213 
     97 H97       -74.5820   27.6407  -78.6164 H         1 UNK         0.0855 
     98 H98       -75.0018   24.6153  -78.3375 H         1 UNK         0.0814 
     99 H99       -74.3390   25.4206  -79.7537 H         1 UNK         0.0814 
    100 H100      -75.9993   25.7257  -79.2757 H         1 UNK         0.0814 
    101 H101      -75.9277   26.0455  -76.5807 H         1 UNK         0.3105 
    102 H102      -75.7056   28.2369  -73.9912 H         1 UNK         0.0547 
    103 H103      -78.1823   28.5921  -75.7357 H         1 UNK         0.0837 
    104 H104      -77.2165   29.8476  -74.9989 H         1 UNK         0.0837 
    105 H105      -78.1405   28.7648  -73.9775 H         1 UNK         0.0837 
    106 H106      -77.7541   26.4161  -74.1979 H         1 UNK         0.3020 
    107 H107      -75.7759   23.5145  -73.4859 H         1 UNK         0.1245 
    108 H108      -76.6336   23.5623  -71.2288 H         1 UNK         0.0781 
    109 H109      -77.3467   25.1234  -71.4493 H         1 UNK         0.0781 
    110 H110      -74.8788   26.7211  -69.0613 H         1 UNK         0.0836 
    111 H111      -76.3549   25.7970  -69.0621 H         1 UNK         0.0836 
    112 H112      -78.3769   24.6376  -74.1779 H         1 UNK         0.3022 
    113 H113      -79.9856   21.4166  -73.8288 H         1 UNK         0.0747 
    114 H114      -80.5865   24.2833  -72.9333 H         1 UNK         0.0793 
    115 H115      -81.7444   22.9608  -73.0780 H         1 UNK         0.0793 
    116 H116      -80.4720   22.8875  -71.8745 H         1 UNK         0.0793 
    117 H117      -80.2438   23.9402  -75.3708 H         1 UNK         0.3047 
    118 H118      -79.6804   22.4138  -78.4435 H         1 UNK         0.0822 
    119 H119      -82.0456   22.8660  -79.1056 H         1 UNK         0.0807 
    120 H120      -82.5441   22.8018  -77.4155 H         1 UNK         0.0807 
    121 H121      -81.9145   21.3644  -78.2051 H         1 UNK         0.0807 
    122 H122      -81.0846   24.8157  -77.5473 H         1 UNK         0.2946 
    123 H123      -78.1414   26.7313  -77.1400 H         1 UNK         0.1144 
    124 H124      -79.0717   28.2101  -78.8923 H         1 UNK         0.0793 
    125 H125      -80.1046   26.9075  -79.4846 H         1 UNK         0.0793 
    126 H126      -78.3564   26.7869  -79.6284 H         1 UNK         0.0793 
    127 H127      -80.8660   27.5227  -77.1940 H         1 UNK         0.2896 
@<TRIPOS>BOND
     1    1    2 1    
     2    1   67 1    
     3    1   68 1    
     4    1   69 1    
     5    2    3 2    
     6    2    4 am   BACKBONE|DICT|INTERRES
     7    4    5 1    
     8    4   70 1    
     9    5    6 1    
    10    5   65 1    
    11    5   71 1    
    12    6    7 1    
    13    6   72 1    
    14    6   73 1    
    15    7    8 1    
    16    8    9 1    
    17    8   74 1    
    18    8   75 1    
    19    9   10 ar   
    20    9   14 ar   
    21   10   11 ar   
    22   10   76 1    
    23   11   12 ar   
    24   11   48 1    
    25   12   13 ar   
    26   12   77 1    
    27   13   14 ar   
    28   13   15 1    
    29   14   78 1    
    30   15   16 1    
    31   15   79 1    
    32   15   80 1    
    33   16   17 1    
    34   17   18 1    
    35   17   81 1    
    36   17   82 1    
    37   18   19 1    
    38   18   22 1    
    39   18   83 1    
    40   19   20 am   BACKBONE|DICT|INTERRES
    41   19   21 2    
    42   20   84 1    
    43   20   85 1    
    44   22   23 am   BACKBONE|DICT|INTERRES
    45   22   86 1    
    46   23   24 2    
    47   23   25 1    
    48   25   26 1    
    49   25   27 1    
    50   25   87 1    
    51   26   88 1    
    52   26   89 1    
    53   26   90 1    
    54   27   28 am   BACKBONE|DICT|INTERRES
    55   27   91 1    
    56   28   29 2    
    57   28   30 1    
    58   30   31 1    
    59   30   32 1    
    60   30   92 1    
    61   31   93 1    
    62   31   94 1    
    63   31   95 1    
    64   32   33 am   BACKBONE|DICT|INTERRES
    65   32   96 1    
    66   33   34 2    
    67   33   35 1    
    68   35   36 1    
    69   35   37 1    
    70   35   97 1    
    71   36   98 1    
    72   36   99 1    
    73   36  100 1    
    74   37   38 am   BACKBONE|DICT|INTERRES
    75   37  101 1    
    76   38   39 2    
    77   38   40 1    
    78   40   41 1    
    79   40   42 1    
    80   40  102 1    
    81   41  103 1    
    82   41  104 1    
    83   41  105 1    
    84   42   43 am   BACKBONE|DICT|INTERRES
    85   42  106 1    
    86   43   44 2    
    87   43   45 1    
    88   45   46 1    
    89   45   49 1    
    90   45  107 1    
    91   46   47 1    
    92   46  108 1    
    93   46  109 1    
    94   47   48 1    
    95   48  110 1    
    96   48  111 1    
    97   49   50 am   BACKBONE|DICT|INTERRES
    98   49  112 1    
    99   50   51 2    
   100   50   52 1    
   101   52   53 1    
   102   52   54 1    
   103   52  113 1    
   104   53  114 1    
   105   53  115 1    
   106   53  116 1    
   107   54   55 am   BACKBONE|DICT|INTERRES
   108   54  117 1    
   109   55   56 2    
   110   55   57 1    
   111   57   58 1    
   112   57   59 1    
   113   57  118 1    
   114   58  119 1    
   115   58  120 1    
   116   58  121 1    
   117   59   60 am   BACKBONE|DICT|INTERRES
   118   59  122 1    
   119   60   61 2    
   120   60   62 1    
   121   62   63 1    
   122   62   64 1    
   123   62  123 1    
   124   63  124 1    
   125   63  125 1    
   126   63  126 1    
   127   64   65 am   BACKBONE|DICT|INTERRES
   128   64  127 1    
   129   65   66 2    
@<TRIPOS>SUBSTRUCTURE
     1 UNK         1 GROUP             0       ****    0 ROOT    
