@<TRIPOS>MOLECULE
3R135
127   129    1
SMALL
USER_CHARGES


@<TRIPOS>ATOM
      1 CA        -83.3477   30.3829  -74.5799 C.3       0 UNK        -0.1998 
      2 C         -82.2548   29.3590  -74.3164 C.2       0 UNK         0.4909 
      3 O         -81.1806   29.4432  -74.9065 O.2       0 UNK        -0.5240 
      4 N         -82.5247   28.3748  -73.4505 N.am      1 UNK        -0.4739 
      5 CA        -81.5973   27.3157  -73.0205 C.3       1 UNK         0.0864 
      6 C6        -81.9370   26.8736  -71.5693 C.3       11 UNK        -0.0881 
      7 S7        -80.4901   26.3951  -70.5654 S.3       11 UNK        -0.2682 
      8 C8        -79.8957   27.9908  -69.9154 C.3       11 UNK         0.0289 
      9 C9        -78.7065   28.5094  -70.7121 C.ar      11 UNK        -0.0687 
     10 C10       -78.8972   29.3912  -71.7802 C.ar      11 UNK        -0.0823 
     11 C11       -77.8089   29.8508  -72.5282 C.ar      11 UNK        -0.0830 
     12 C12       -76.5162   29.4617  -72.1659 C.ar      11 UNK        -0.1021 
     13 C13       -76.3101   28.5870  -71.0949 C.ar      11 UNK        -0.0753 
     14 C14       -77.4091   28.1086  -70.3754 C.ar      11 UNK        -0.0933 
     15 C15       -74.8982   28.1557  -70.7326 C.3       11 UNK         0.0166 
     16 S16       -74.3884   26.7434  -71.7573 S.3       11 UNK        -0.2615 
     17 C17       -72.5633   26.7652  -71.6361 C.3       11 UNK        -0.0865 
     18 CA        -71.8832   28.0477  -72.1952 C.3       10 UNK         0.0862 
     19 C         -70.3308   27.9385  -72.1848 C.2       10 UNK         0.5551 
     20 N         -69.6232   28.3170  -73.2439 N.am      10 UNK        -0.7319 
     21 O         -69.7511   27.5218  -71.1846 O.2       10 UNK        -0.5018 
     22 N         -72.4223   28.4328  -73.5072 N.am      10 UNK        -0.4509 
     23 C         -72.8461   29.6607  -73.8317 C.2       10 UNK         0.4899 
     24 O         -72.8836   30.6024  -73.0379 O.2       10 UNK        -0.4839 
     25 CA        -73.3206   29.8785  -75.2830 C.3       9 UNK         0.0222 
     26 CB        -73.1672   31.3421  -75.7471 C.3       9 UNK        -0.1966 
     27 N         -72.7176   28.9595  -76.2574 N.am      9 UNK        -0.4218 
     28 C         -71.4092   28.8038  -76.5138 C.2       9 UNK         0.5020 
     29 O         -70.5228   29.4448  -75.9444 O.2       9 UNK        -0.5274 
     30 CA        -71.0265   27.7281  -77.5516 C.3       8 UNK         0.0270 
     31 CB        -69.5218   27.3849  -77.5164 C.3       8 UNK        -0.1976 
     32 N         -71.8171   26.4931  -77.4624 N.am      8 UNK        -0.4313 
     33 C         -72.0192   25.7192  -76.3857 C.2       8 UNK         0.5041 
     34 O         -71.6482   26.0102  -75.2466 O.2       8 UNK        -0.5577 
     35 CA        -72.7894   24.4099  -76.6435 C.3       7 UNK         0.0284 
     36 CB        -72.7887   23.4687  -75.4245 C.3       7 UNK        -0.1958 
     37 N         -74.1681   24.6959  -77.0470 N.am      7 UNK        -0.4454 
     38 C         -74.5402   25.0505  -78.2874 C.2       7 UNK         0.5089 
     39 O         -73.7566   25.0832  -79.2378 O.2       7 UNK        -0.5125 
     40 CA        -75.9998   25.4975  -78.5147 C.3       6 UNK         0.0408 
     41 CB        -76.8324   24.3427  -79.0909 C.3       6 UNK        -0.1791 
     42 N         -76.6613   26.0250  -77.3184 N.am      6 UNK        -0.4762 
     43 C         -76.2328   27.0719  -76.5966 C.2       6 UNK         0.5007 
     44 O         -75.2688   27.7661  -76.9218 O.2       6 UNK        -0.5032 
     45 CA        -76.9539   27.3381  -75.2564 C.3       5 UNK         0.0783 
     46 C46       -78.0416   28.4334  -75.3914 C.3       11 UNK        -0.0857 
     47 S47       -77.3296   30.1127  -75.2803 S.3       11 UNK        -0.2512 
     48 C48       -78.0390   30.7639  -73.7276 C.3       11 UNK         0.0225 
     49 N         -77.4832   26.1106  -74.6470 N.am      5 UNK        -0.4615 
     50 C         -76.7278   25.0809  -74.2377 C.2       4 UNK         0.5053 
     51 O         -75.5102   25.0285  -74.3858 O.2       4 UNK        -0.5105 
     52 CA        -77.4604   23.8832  -73.6186 C.3       4 UNK         0.0263 
     53 CB        -78.0395   24.2445  -72.2450 C.3       4 UNK        -0.1981 
     54 N         -78.5189   23.4006  -74.5054 N.am      4 UNK        -0.4224 
     55 C         -78.2765   22.7389  -75.6475 C.2       3 UNK         0.4895 
     56 O         -77.1559   22.3659  -75.9943 O.2       3 UNK        -0.5091 
     57 CA        -79.4679   22.4526  -76.5789 C.3       3 UNK         0.0250 
     58 CB        -79.9726   21.0150  -76.3768 C.3       3 UNK        -0.1996 
     59 N         -80.5925   23.3809  -76.4378 N.am      3 UNK        -0.4254 
     60 C         -80.5477   24.7064  -76.6325 C.2       2 UNK         0.5004 
     61 O         -79.5223   25.3218  -76.9289 O.2       2 UNK        -0.5226 
     62 CA        -81.8615   25.4876  -76.4437 C.3       2 UNK         0.0269 
     63 CB        -83.1193   24.5965  -76.3236 C.3       2 UNK        -0.1926 
     64 N         -81.7965   26.4169  -75.3107 N.am      2 UNK        -0.4687 
     65 C         -81.5005   26.1425  -74.0305 C.2       1 UNK         0.5165 
     66 O         -81.1664   25.0212  -73.6435 O.2       1 UNK        -0.5079 
     67 H67       -84.2523   30.1695  -74.0117 H         1 UNK         0.0900 
     68 H68       -83.6057   30.3928  -75.6383 H         1 UNK         0.0900 
     69 H69       -83.0010   31.3783  -74.3048 H         1 UNK         0.0900 
     70 H70       -83.4454   28.3338  -73.0353 H         1 UNK         0.2959 
     71 H71       -80.5964   27.7437  -73.0146 H         1 UNK         0.1079 
     72 H72       -82.4457   27.6751  -71.0313 H         1 UNK         0.0837 
     73 H73       -82.6478   26.0449  -71.5707 H         1 UNK         0.0837 
     74 H74       -80.7002   28.7272  -69.9039 H         1 UNK         0.0685 
     75 H75       -79.6024   27.8525  -68.8737 H         1 UNK         0.0685 
     76 H76       -79.8979   29.7089  -72.0393 H         1 UNK         0.1434 
     77 H77       -75.6696   29.8231  -72.7331 H         1 UNK         0.1329 
     78 H78       -77.2553   27.4219  -69.5543 H         1 UNK         0.1335 
     79 H79       -74.8328   27.8828  -69.6783 H         1 UNK         0.0680 
     80 H80       -74.2250   28.9996  -70.8779 H         1 UNK         0.0680 
     81 H81       -72.2848   26.6109  -70.5921 H         1 UNK         0.1032 
     82 H82       -72.1981   25.8903  -72.1779 H         1 UNK         0.1032 
     83 H83       -72.0859   28.8452  -71.4806 H         1 UNK         0.0461 
     84 H84       -70.0798   28.6755  -74.0751 H         1 UNK         0.3453 
     85 H85       -68.6190   28.2449  -73.2159 H         1 UNK         0.3453 
     86 H86       -72.3746   27.7119  -74.2203 H         1 UNK         0.2984 
     87 H87       -74.3857   29.6510  -75.2754 H         1 UNK         0.0554 
     88 H88       -73.5365   31.4758  -76.7637 H         1 UNK         0.0847 
     89 H89       -72.1268   31.6676  -75.7205 H         1 UNK         0.0847 
     90 H90       -73.7369   32.0180  -75.1082 H         1 UNK         0.0847 
     91 H91       -73.3871   28.3635  -76.7377 H         1 UNK         0.3141 
     92 H92       -71.2445   28.1624  -78.5282 H         1 UNK         0.0743 
     93 H93       -68.9110   28.2708  -77.6947 H         1 UNK         0.0784 
     94 H94       -69.2271   26.9739  -76.5499 H         1 UNK         0.0784 
     95 H95       -69.2620   26.6560  -78.2840 H         1 UNK         0.0784 
     96 H96       -72.2376   26.1739  -78.3301 H         1 UNK         0.3213 
     97 H97       -72.2826   23.8847  -77.4563 H         1 UNK         0.0855 
     98 H98       -73.1980   23.9490  -74.5358 H         1 UNK         0.0814 
     99 H99       -71.7728   23.1570  -75.1795 H         1 UNK         0.0814 
    100 H100      -73.3697   22.5666  -75.6164 H         1 UNK         0.0814 
    101 H101      -74.8450   24.7588  -76.2920 H         1 UNK         0.3105 
    102 H102      -75.9816   26.3028  -79.2515 H         1 UNK         0.0547 
    103 H103      -77.8599   24.6493  -79.2878 H         1 UNK         0.0837 
    104 H104      -76.4114   23.9934  -80.0346 H         1 UNK         0.0837 
    105 H105      -76.8590   23.4897  -78.4135 H         1 UNK         0.0837 
    106 H106      -77.5105   25.5558  -77.0167 H         1 UNK         0.3020 
    107 H107      -76.1886   27.6966  -74.5631 H         1 UNK         0.1245 
    108 H108      -78.7836   28.3252  -74.6011 H         1 UNK         0.0781 
    109 H109      -78.6006   28.3359  -76.3244 H         1 UNK         0.0781 
    110 H110      -79.1047   30.9389  -73.8832 H         1 UNK         0.0836 
    111 H111      -77.5963   31.7388  -73.5201 H         1 UNK         0.0836 
    112 H112      -78.4857   26.0397  -74.5657 H         1 UNK         0.3022 
    113 H113      -76.7337   23.0804  -73.4746 H         1 UNK         0.0747 
    114 H114      -78.5263   23.3891  -71.7767 H         1 UNK         0.0793 
    115 H115      -77.2557   24.5887  -71.5685 H         1 UNK         0.0793 
    116 H116      -78.7715   25.0454  -72.3258 H         1 UNK         0.0793 
    117 H117      -79.4684   23.6837  -74.2918 H         1 UNK         0.3047 
    118 H118      -79.1015   22.5441  -77.6034 H         1 UNK         0.0822 
    119 H119      -79.1627   20.2951  -76.5037 H         1 UNK         0.0807 
    120 H120      -80.7459   20.7587  -77.1012 H         1 UNK         0.0807 
    121 H121      -80.3845   20.8687  -75.3774 H         1 UNK         0.0807 
    122 H122      -81.4769   22.9762  -76.1668 H         1 UNK         0.2946 
    123 H123      -81.9735   26.0968  -77.3420 H         1 UNK         0.1144 
    124 H124      -83.2186   23.9314  -77.1828 H         1 UNK         0.0793 
    125 H125      -84.0230   25.2051  -76.2913 H         1 UNK         0.0793 
    126 H126      -83.1094   23.9830  -75.4220 H         1 UNK         0.0793 
    127 H127      -81.9717   27.3884  -75.5323 H         1 UNK         0.2896 
@<TRIPOS>BOND
     1    1    2 1    
     2    1   67 1    
     3    1   68 1    
     4    1   69 1    
     5    2    3 2    
     6    2    4 am   BACKBONE|DICT|INTERRES
     7    4    5 1    
     8    4   70 1    
     9    5    6 1    
    10    5   65 1    
    11    5   71 1    
    12    6    7 1    
    13    6   72 1    
    14    6   73 1    
    15    7    8 1    
    16    8    9 1    
    17    8   74 1    
    18    8   75 1    
    19    9   10 ar   
    20    9   14 ar   
    21   10   11 ar   
    22   10   76 1    
    23   11   12 ar   
    24   11   48 1    
    25   12   13 ar   
    26   12   77 1    
    27   13   14 ar   
    28   13   15 1    
    29   14   78 1    
    30   15   16 1    
    31   15   79 1    
    32   15   80 1    
    33   16   17 1    
    34   17   18 1    
    35   17   81 1    
    36   17   82 1    
    37   18   19 1    
    38   18   22 1    
    39   18   83 1    
    40   19   20 am   BACKBONE|DICT|INTERRES
    41   19   21 2    
    42   20   84 1    
    43   20   85 1    
    44   22   23 am   BACKBONE|DICT|INTERRES
    45   22   86 1    
    46   23   24 2    
    47   23   25 1    
    48   25   26 1    
    49   25   27 1    
    50   25   87 1    
    51   26   88 1    
    52   26   89 1    
    53   26   90 1    
    54   27   28 am   BACKBONE|DICT|INTERRES
    55   27   91 1    
    56   28   29 2    
    57   28   30 1    
    58   30   31 1    
    59   30   32 1    
    60   30   92 1    
    61   31   93 1    
    62   31   94 1    
    63   31   95 1    
    64   32   33 am   BACKBONE|DICT|INTERRES
    65   32   96 1    
    66   33   34 2    
    67   33   35 1    
    68   35   36 1    
    69   35   37 1    
    70   35   97 1    
    71   36   98 1    
    72   36   99 1    
    73   36  100 1    
    74   37   38 am   BACKBONE|DICT|INTERRES
    75   37  101 1    
    76   38   39 2    
    77   38   40 1    
    78   40   41 1    
    79   40   42 1    
    80   40  102 1    
    81   41  103 1    
    82   41  104 1    
    83   41  105 1    
    84   42   43 am   BACKBONE|DICT|INTERRES
    85   42  106 1    
    86   43   44 2    
    87   43   45 1    
    88   45   46 1    
    89   45   49 1    
    90   45  107 1    
    91   46   47 1    
    92   46  108 1    
    93   46  109 1    
    94   47   48 1    
    95   48  110 1    
    96   48  111 1    
    97   49   50 am   BACKBONE|DICT|INTERRES
    98   49  112 1    
    99   50   51 2    
   100   50   52 1    
   101   52   53 1    
   102   52   54 1    
   103   52  113 1    
   104   53  114 1    
   105   53  115 1    
   106   53  116 1    
   107   54   55 am   BACKBONE|DICT|INTERRES
   108   54  117 1    
   109   55   56 2    
   110   55   57 1    
   111   57   58 1    
   112   57   59 1    
   113   57  118 1    
   114   58  119 1    
   115   58  120 1    
   116   58  121 1    
   117   59   60 am   BACKBONE|DICT|INTERRES
   118   59  122 1    
   119   60   61 2    
   120   60   62 1    
   121   62   63 1    
   122   62   64 1    
   123   62  123 1    
   124   63  124 1    
   125   63  125 1    
   126   63  126 1    
   127   64   65 am   BACKBONE|DICT|INTERRES
   128   64  127 1    
   129   65   66 2    
@<TRIPOS>SUBSTRUCTURE
     1 UNK         1 GROUP             0       ****    0 ROOT    
