@<TRIPOS>MOLECULE
3R135
127   129    1
SMALL
USER_CHARGES


@<TRIPOS>ATOM
      1 CA        -81.8769   25.6831  -69.9225 C.3       0 UNK        -0.1998 
      2 C         -82.4026   26.4121  -71.1498 C.2       0 UNK         0.4909 
      3 O         -83.5845   26.2966  -71.4739 O.2       0 UNK        -0.5240 
      4 N         -81.5287   27.1559  -71.8396 N.am      1 UNK        -0.4739 
      5 CA        -81.8446   27.9037  -73.0648 C.3       1 UNK         0.0864 
      6 C6        -80.8885   29.1086  -73.2428 C.3       11 UNK        -0.0881 
      7 S7        -81.2571   30.4818  -72.0889 S.3       11 UNK        -0.2682 
      8 C8        -80.3789   30.0483  -70.5444 C.3       11 UNK         0.0289 
      9 C9        -78.9407   29.6075  -70.7755 C.ar      11 UNK        -0.0687 
     10 C10       -78.5281   28.3307  -70.3828 C.ar      11 UNK        -0.0823 
     11 C11       -77.2408   27.8788  -70.6840 C.ar      11 UNK        -0.0830 
     12 C12       -76.3475   28.7318  -71.3389 C.ar      11 UNK        -0.1021 
     13 C13       -76.7405   30.0197  -71.7118 C.ar      11 UNK        -0.0753 
     14 C14       -78.0353   30.4560  -71.4199 C.ar      11 UNK        -0.0933 
     15 C15       -75.7825   30.9246  -72.4669 C.3       11 UNK         0.0166 
     16 S16       -75.9429   30.6744  -74.2620 S.3       11 UNK        -0.2615 
     17 C17       -74.6946   31.8484  -74.8928 C.3       11 UNK        -0.0865 
     18 CA        -73.4460   31.1570  -75.5043 C.3       10 UNK         0.0862 
     19 C         -72.4742   32.2263  -76.0865 C.2       10 UNK         0.5551 
     20 N         -71.2931   32.4337  -75.5172 N.am      10 UNK        -0.7319 
     21 O         -72.8050   32.8831  -77.0706 O.2       10 UNK        -0.5018 
     22 N         -72.8455   30.1949  -74.5643 N.am      10 UNK        -0.4509 
     23 C         -71.9121   29.2837  -74.8652 C.2       10 UNK         0.4899 
     24 O         -71.3785   29.1838  -75.9699 O.2       10 UNK        -0.4839 
     25 CA        -71.4844   28.3219  -73.7471 C.3       9 UNK         0.0222 
     26 CB        -72.1442   28.5906  -72.3783 C.3       9 UNK        -0.1966 
     27 N         -71.8062   26.9631  -74.1708 N.am      9 UNK        -0.4218 
     28 C         -70.9437   25.9423  -74.2216 C.2       9 UNK         0.5020 
     29 O         -69.7602   26.0185  -73.8861 O.2       9 UNK        -0.5274 
     30 CA        -71.4942   24.5951  -74.7162 C.3       8 UNK         0.0270 
     31 CB        -72.1793   23.8434  -73.5631 C.3       8 UNK        -0.1976 
     32 N         -72.4216   24.7206  -75.8446 N.am      8 UNK        -0.4313 
     33 C         -72.0655   25.0889  -77.0843 C.2       8 UNK         0.5041 
     34 O         -70.9107   25.3657  -77.4114 O.2       8 UNK        -0.5577 
     35 CA        -73.1749   25.1345  -78.1485 C.3       7 UNK         0.0284 
     36 CB        -73.4960   23.7209  -78.6609 C.3       7 UNK        -0.1958 
     37 N         -74.3966   25.7704  -77.6556 N.am      7 UNK        -0.4454 
     38 C         -74.5462   27.0900  -77.4776 C.2       7 UNK         0.5089 
     39 O         -73.7039   27.9235  -77.8068 O.2       7 UNK        -0.5125 
     40 CA        -75.8527   27.5684  -76.8173 C.3       6 UNK         0.0408 
     41 CB        -76.9251   27.8605  -77.8772 C.3       6 UNK        -0.1791 
     42 N         -76.3889   26.6314  -75.8270 N.am      6 UNK        -0.4762 
     43 C         -75.7632   26.2801  -74.6939 C.2       6 UNK         0.5007 
     44 O         -74.6619   26.7121  -74.3502 O.2       6 UNK        -0.5032 
     45 CA        -76.4725   25.2270  -73.8212 C.3       5 UNK         0.0783 
     46 C46       -77.6584   25.8580  -73.0447 C.3       11 UNK        -0.0857 
     47 S47       -77.8117   25.2285  -71.3401 S.3       11 UNK        -0.2512 
     48 C48       -76.8392   26.4420  -70.3782 C.3       11 UNK         0.0225 
     49 N         -76.9014   24.0798  -74.6284 N.am      5 UNK        -0.4615 
     50 C         -76.0844   23.2558  -75.2982 C.2       4 UNK         0.5053 
     51 O         -74.8579   23.3285  -75.2618 O.2       4 UNK        -0.5105 
     52 CA        -76.7509   22.2077  -76.2052 C.3       4 UNK         0.0263 
     53 CB        -77.1854   20.9814  -75.3872 C.3       4 UNK        -0.1981 
     54 N         -77.9014   22.7466  -76.9356 N.am      4 UNK        -0.4224 
     55 C         -77.8303   23.7179  -77.8591 C.2       3 UNK         0.4895 
     56 O         -76.7748   24.2130  -78.2494 O.2       3 UNK        -0.5091 
     57 CA        -79.1635   24.2668  -78.3993 C.3       3 UNK         0.0250 
     58 CB        -79.6276   23.4554  -79.6190 C.3       3 UNK        -0.1996 
     59 N         -80.2262   24.2916  -77.3878 N.am      3 UNK        -0.4254 
     60 C         -80.1756   25.0081  -76.2560 C.2       2 UNK         0.5004 
     61 O         -79.2471   25.7699  -75.9736 O.2       2 UNK        -0.5226 
     62 CA        -81.3055   24.7481  -75.2453 C.3       2 UNK         0.0269 
     63 CB        -81.1202   23.3720  -74.5802 C.3       2 UNK        -0.1926 
     64 N         -81.3599   25.7575  -74.1877 N.am      2 UNK        -0.4687 
     65 C         -81.8510   26.9974  -74.3192 C.2       1 UNK         0.5165 
     66 O         -82.3248   27.4279  -75.3721 O.2       1 UNK        -0.5079 
     67 H67       -80.7896   25.7189  -69.8597 H         1 UNK         0.0900 
     68 H68       -82.1754   24.6355  -69.9518 H         1 UNK         0.0900 
     69 H69       -82.2872   26.1291  -69.0170 H         1 UNK         0.0900 
     70 H70       -80.5686   27.2139  -71.5338 H         1 UNK         0.2959 
     71 H71       -82.8619   28.2931  -72.9796 H         1 UNK         0.1079 
     72 H72       -80.9899   29.5292  -74.2454 H         1 UNK         0.0837 
     73 H73       -79.8446   28.8008  -73.1659 H         1 UNK         0.0837 
     74 H74       -80.3809   30.9170  -69.8849 H         1 UNK         0.0685 
     75 H75       -80.9458   29.2738  -70.0260 H         1 UNK         0.0685 
     76 H76       -79.2178   27.6678  -69.8799 H         1 UNK         0.1434 
     77 H77       -75.3585   28.3797  -71.5939 H         1 UNK         0.1329 
     78 H78       -78.3535   31.4417  -71.7311 H         1 UNK         0.1335 
     79 H79       -75.9855   31.9692  -72.2251 H         1 UNK         0.0680 
     80 H80       -74.7562   30.7266  -72.1553 H         1 UNK         0.0680 
     81 H81       -74.3987   32.5332  -74.0957 H         1 UNK         0.1032 
     82 H82       -75.1860   32.4675  -75.6460 H         1 UNK         0.1032 
     83 H83       -73.7871   30.5704  -76.3598 H         1 UNK         0.0461 
     84 H84       -71.0126   31.8932  -74.7151 H         1 UNK         0.3453 
     85 H85       -70.6720   33.1274  -75.9029 H         1 UNK         0.3453 
     86 H86       -73.2311   30.1953  -73.6336 H         1 UNK         0.2984 
     87 H87       -70.4057   28.4449  -73.6327 H         1 UNK         0.0554 
     88 H88       -71.9270   29.5972  -72.0186 H         1 UNK         0.0847 
     89 H89       -73.2261   28.4680  -72.4207 H         1 UNK         0.0847 
     90 H90       -71.7683   27.8982  -71.6248 H         1 UNK         0.0847 
     91 H91       -72.7716   26.8071  -74.4557 H         1 UNK         0.3141 
     92 H92       -70.6445   23.9957  -75.0501 H         1 UNK         0.0743 
     93 H93       -71.5055   23.7321  -72.7124 H         1 UNK         0.0784 
     94 H94       -73.0678   24.3692  -73.2109 H         1 UNK         0.0784 
     95 H95       -72.4826   22.8417  -73.8684 H         1 UNK         0.0784 
     96 H96       -73.3839   24.4370  -75.6730 H         1 UNK         0.3213 
     97 H97       -72.8019   25.7196  -78.9922 H         1 UNK         0.0855 
     98 H98       -72.6009   23.2348  -79.0512 H         1 UNK         0.0814 
     99 H99       -74.2278   23.7499  -79.4684 H         1 UNK         0.0814 
    100 H100      -73.8960   23.0839  -77.8717 H         1 UNK         0.0814 
    101 H101      -75.1886   25.1648  -77.4646 H         1 UNK         0.3105 
    102 H102      -75.6295   28.5007  -76.2958 H         1 UNK         0.0547 
    103 H103      -76.5740   28.6083  -78.5894 H         1 UNK         0.0837 
    104 H104      -77.1842   26.9665  -78.4444 H         1 UNK         0.0837 
    105 H105      -77.8378   28.2470  -77.4231 H         1 UNK         0.0837 
    106 H106      -77.3125   26.2465  -76.0081 H         1 UNK         0.3020 
    107 H107      -75.7246   24.8690  -73.1098 H         1 UNK         0.1245 
    108 H108      -78.6024   25.6449  -73.5415 H         1 UNK         0.0781 
    109 H109      -77.6121   26.9466  -73.0349 H         1 UNK         0.0781 
    110 H110      -75.7793   26.2843  -70.5841 H         1 UNK         0.0836 
    111 H111      -76.9768   26.2465  -69.3138 H         1 UNK         0.0836 
    112 H112      -77.8957   23.9767  -74.7570 H         1 UNK         0.3022 
    113 H113      -76.0093   21.8845  -76.9389 H         1 UNK         0.0747 
    114 H114      -77.5844   20.1968  -76.0305 H         1 UNK         0.0793 
    115 H115      -76.3390   20.5549  -74.8468 H         1 UNK         0.0793 
    116 H116      -77.9491   21.2328  -74.6501 H         1 UNK         0.0793 
    117 H117      -78.8105   22.3832  -76.6917 H         1 UNK         0.3047 
    118 H118      -78.9883   25.2956  -78.7203 H         1 UNK         0.0822 
    119 H119      -80.5241   23.8866  -80.0650 H         1 UNK         0.0807 
    120 H120      -79.8460   22.4189  -79.3589 H         1 UNK         0.0807 
    121 H121      -78.8583   23.4419  -80.3927 H         1 UNK         0.0807 
    122 H122      -81.0200   23.6882  -77.5509 H         1 UNK         0.2946 
    123 H123      -82.2555   24.7599  -75.7848 H         1 UNK         0.1144 
    124 H124      -81.9263   23.1632  -73.8763 H         1 UNK         0.0793 
    125 H125      -80.1780   23.3080  -74.0340 H         1 UNK         0.0793 
    126 H126      -81.1277   22.5671  -75.3162 H         1 UNK         0.0793 
    127 H127      -80.9870   25.4945  -73.2883 H         1 UNK         0.2896 
@<TRIPOS>BOND
     1    1    2 1    
     2    1   67 1    
     3    1   68 1    
     4    1   69 1    
     5    2    3 2    
     6    2    4 am   BACKBONE|DICT|INTERRES
     7    4    5 1    
     8    4   70 1    
     9    5    6 1    
    10    5   65 1    
    11    5   71 1    
    12    6    7 1    
    13    6   72 1    
    14    6   73 1    
    15    7    8 1    
    16    8    9 1    
    17    8   74 1    
    18    8   75 1    
    19    9   10 ar   
    20    9   14 ar   
    21   10   11 ar   
    22   10   76 1    
    23   11   12 ar   
    24   11   48 1    
    25   12   13 ar   
    26   12   77 1    
    27   13   14 ar   
    28   13   15 1    
    29   14   78 1    
    30   15   16 1    
    31   15   79 1    
    32   15   80 1    
    33   16   17 1    
    34   17   18 1    
    35   17   81 1    
    36   17   82 1    
    37   18   19 1    
    38   18   22 1    
    39   18   83 1    
    40   19   20 am   BACKBONE|DICT|INTERRES
    41   19   21 2    
    42   20   84 1    
    43   20   85 1    
    44   22   23 am   BACKBONE|DICT|INTERRES
    45   22   86 1    
    46   23   24 2    
    47   23   25 1    
    48   25   26 1    
    49   25   27 1    
    50   25   87 1    
    51   26   88 1    
    52   26   89 1    
    53   26   90 1    
    54   27   28 am   BACKBONE|DICT|INTERRES
    55   27   91 1    
    56   28   29 2    
    57   28   30 1    
    58   30   31 1    
    59   30   32 1    
    60   30   92 1    
    61   31   93 1    
    62   31   94 1    
    63   31   95 1    
    64   32   33 am   BACKBONE|DICT|INTERRES
    65   32   96 1    
    66   33   34 2    
    67   33   35 1    
    68   35   36 1    
    69   35   37 1    
    70   35   97 1    
    71   36   98 1    
    72   36   99 1    
    73   36  100 1    
    74   37   38 am   BACKBONE|DICT|INTERRES
    75   37  101 1    
    76   38   39 2    
    77   38   40 1    
    78   40   41 1    
    79   40   42 1    
    80   40  102 1    
    81   41  103 1    
    82   41  104 1    
    83   41  105 1    
    84   42   43 am   BACKBONE|DICT|INTERRES
    85   42  106 1    
    86   43   44 2    
    87   43   45 1    
    88   45   46 1    
    89   45   49 1    
    90   45  107 1    
    91   46   47 1    
    92   46  108 1    
    93   46  109 1    
    94   47   48 1    
    95   48  110 1    
    96   48  111 1    
    97   49   50 am   BACKBONE|DICT|INTERRES
    98   49  112 1    
    99   50   51 2    
   100   50   52 1    
   101   52   53 1    
   102   52   54 1    
   103   52  113 1    
   104   53  114 1    
   105   53  115 1    
   106   53  116 1    
   107   54   55 am   BACKBONE|DICT|INTERRES
   108   54  117 1    
   109   55   56 2    
   110   55   57 1    
   111   57   58 1    
   112   57   59 1    
   113   57  118 1    
   114   58  119 1    
   115   58  120 1    
   116   58  121 1    
   117   59   60 am   BACKBONE|DICT|INTERRES
   118   59  122 1    
   119   60   61 2    
   120   60   62 1    
   121   62   63 1    
   122   62   64 1    
   123   62  123 1    
   124   63  124 1    
   125   63  125 1    
   126   63  126 1    
   127   64   65 am   BACKBONE|DICT|INTERRES
   128   64  127 1    
   129   65   66 2    
@<TRIPOS>SUBSTRUCTURE
     1 UNK         1 GROUP             0       ****    0 ROOT    
