@<TRIPOS>MOLECULE
3R135
127   129    1
SMALL
USER_CHARGES


@<TRIPOS>ATOM
      1 CA        -80.9412   24.5204  -70.5359 C.3       0 UNK        -0.1998 
      2 C         -81.7928   25.4608  -71.3744 C.2       0 UNK         0.4909 
      3 O         -82.9721   25.1847  -71.5969 O.2       0 UNK        -0.5240 
      4 N         -81.2054   26.5729  -71.8363 N.am      1 UNK        -0.4739 
      5 CA        -81.8821   27.5899  -72.6551 C.3       1 UNK         0.0864 
      6 C6        -81.2038   28.9794  -72.5505 C.3       11 UNK        -0.0881 
      7 S7        -81.3592   29.6540  -70.8576 S.3       11 UNK        -0.2682 
      8 C8        -79.9312   30.7904  -70.7374 C.3       11 UNK         0.0289 
      9 C9        -78.5497   30.1357  -70.7939 C.ar      11 UNK        -0.0687 
     10 C10       -78.3532   28.7704  -70.5506 C.ar      11 UNK        -0.0823 
     11 C11       -77.0892   28.1946  -70.6945 C.ar      11 UNK        -0.0830 
     12 C12       -75.9969   29.0031  -71.0179 C.ar      11 UNK        -0.1021 
     13 C13       -76.1669   30.3736  -71.2272 C.ar      11 UNK        -0.0753 
     14 C14       -77.4439   30.9320  -71.1114 C.ar      11 UNK        -0.0933 
     15 C15       -74.9685   31.2402  -71.5937 C.3       11 UNK         0.0166 
     16 S16       -75.1472   32.0675  -73.2093 S.3       11 UNK        -0.2615 
     17 C17       -75.3971   30.6744  -74.3692 C.3       11 UNK        -0.0865 
     18 CA        -74.1699   30.2605  -75.2353 C.3       10 UNK         0.0862 
     19 C         -73.5535   31.3518  -76.1661 C.2       10 UNK         0.5551 
     20 N         -74.2625   32.4374  -76.4465 N.am      10 UNK        -0.7319 
     21 O         -72.4610   31.1868  -76.7049 O.2       10 UNK        -0.5018 
     22 N         -73.2105   29.4245  -74.4985 N.am      10 UNK        -0.4509 
     23 C         -72.1690   29.8252  -73.7577 C.2       10 UNK         0.4899 
     24 O         -71.8700   31.0027  -73.5571 O.2       10 UNK        -0.4839 
     25 CA        -71.3122   28.7317  -73.0893 C.3       9 UNK         0.0222 
     26 CB        -71.5550   28.7175  -71.5702 C.3       9 UNK        -0.1966 
     27 N         -71.5153   27.3748  -73.6090 N.am      9 UNK        -0.4218 
     28 C         -71.1107   26.9242  -74.8048 C.2       9 UNK         0.5020 
     29 O         -70.5582   27.6305  -75.6491 O.2       9 UNK        -0.5274 
     30 CA        -71.3266   25.4309  -75.1044 C.3       8 UNK         0.0270 
     31 CB        -71.8894   24.6174  -73.9193 C.3       8 UNK        -0.1976 
     32 N         -72.2350   25.2941  -76.2394 N.am      8 UNK        -0.4313 
     33 C         -71.9449   24.7086  -77.4084 C.2       8 UNK         0.5041 
     34 O         -70.8377   24.2380  -77.6767 O.2       8 UNK        -0.5577 
     35 CA        -73.0701   24.5846  -78.4578 C.3       7 UNK         0.0284 
     36 CB        -73.4343   23.1061  -78.6784 C.3       7 UNK        -0.1958 
     37 N         -74.2925   25.3142  -78.1148 N.am      7 UNK        -0.4454 
     38 C         -74.4521   26.6405  -78.2056 C.2       7 UNK         0.5089 
     39 O         -73.6003   27.4076  -78.6528 O.2       7 UNK        -0.5125 
     40 CA        -75.7762   27.2075  -77.6622 C.3       6 UNK         0.0408 
     41 CB        -76.8606   27.1682  -78.7484 C.3       6 UNK        -0.1791 
     42 N         -76.2536   26.5249  -76.4513 N.am      6 UNK        -0.4762 
     43 C         -75.5671   26.4173  -75.3016 C.2       6 UNK         0.5007 
     44 O         -74.4382   26.8773  -75.1314 O.2       6 UNK        -0.5032 
     45 CA        -76.2352   25.6447  -74.1550 C.3       5 UNK         0.0783 
     46 C46       -77.2254   26.5572  -73.4018 C.3       11 UNK        -0.0857 
     47 S47       -77.8385   25.7879  -71.8655 S.3       11 UNK        -0.2512 
     48 C48       -76.9162   26.6872  -70.5709 C.3       11 UNK         0.0225 
     49 N         -76.8671   24.4303  -74.6681 N.am      5 UNK        -0.4615 
     50 C         -76.2171   23.2845  -74.9079 C.2       4 UNK         0.5053 
     51 O         -75.0314   23.1003  -74.6356 O.2       4 UNK        -0.5105 
     52 CA        -77.0174   22.1569  -75.5851 C.3       4 UNK         0.0263 
     53 CB        -77.6668   21.2521  -74.5258 C.3       4 UNK        -0.1981 
     54 N         -78.0503   22.6460  -76.5035 N.am      4 UNK        -0.4224 
     55 C         -77.8086   23.3494  -77.6191 C.2       3 UNK         0.4895 
     56 O         -76.6794   23.6233  -78.0255 O.2       3 UNK        -0.5091 
     57 CA        -79.0323   23.8798  -78.3877 C.3       3 UNK         0.0250 
     58 CB        -79.4987   22.8447  -79.4233 C.3       3 UNK        -0.1996 
     59 N         -80.1707   24.2778  -77.5489 N.am      3 UNK        -0.4254 
     60 C         -80.1390   25.1369  -76.5186 C.2       2 UNK         0.5004 
     61 O         -79.1048   25.6621  -76.0990 O.2       2 UNK        -0.5226 
     62 CA        -81.4869   25.4465  -75.8490 C.3       2 UNK         0.0269 
     63 CB        -82.3209   24.1753  -75.5897 C.3       2 UNK        -0.1926 
     64 N         -81.2967   26.1449  -74.5760 N.am      2 UNK        -0.4687 
     65 C         -82.0726   27.1391  -74.1210 C.2       1 UNK         0.5165 
     66 O         -82.9549   27.6717  -74.7968 O.2       1 UNK        -0.5079 
     67 H67       -80.4942   23.7527  -71.1672 H         1 UNK         0.0900 
     68 H68       -80.1419   25.0554  -70.0236 H         1 UNK         0.0900 
     69 H69       -81.5510   24.0285  -69.7784 H         1 UNK         0.0900 
     70 H70       -80.2268   26.7350  -71.6441 H         1 UNK         0.2959 
     71 H71       -82.8958   27.7019  -72.2621 H         1 UNK         0.1079 
     72 H72       -81.6706   29.6928  -73.2326 H         1 UNK         0.0837 
     73 H73       -80.1535   28.9180  -72.8411 H         1 UNK         0.0837 
     74 H74       -80.0185   31.5285  -71.5363 H         1 UNK         0.0685 
     75 H75       -80.0104   31.3401  -69.7989 H         1 UNK         0.0685 
     76 H76       -79.1863   28.1350  -70.2898 H         1 UNK         0.1434 
     77 H77       -75.0177   28.5600  -71.1331 H         1 UNK         0.1329 
     78 H78       -77.5773   31.9903  -71.2908 H         1 UNK         0.1335 
     79 H79       -74.8361   32.0016  -70.8242 H         1 UNK         0.0680 
     80 H80       -74.0505   30.6522  -71.6002 H         1 UNK         0.0680 
     81 H81       -75.7604   29.8031  -73.8248 H         1 UNK         0.1032 
     82 H82       -76.2257   30.9462  -75.0247 H         1 UNK         0.1032 
     83 H83       -74.5703   29.5548  -75.9591 H         1 UNK         0.0461 
     84 H84       -75.1486   32.6044  -75.9968 H         1 UNK         0.3453 
     85 H85       -73.8766   33.1284  -77.0703 H         1 UNK         0.3453 
     86 H86       -73.3576   28.4271  -74.6136 H         1 UNK         0.2984 
     87 H87       -70.2674   28.9989  -73.2605 H         1 UNK         0.0554 
     88 H88       -71.3885   29.7046  -71.1366 H         1 UNK         0.0847 
     89 H89       -70.8774   28.0287  -71.0654 H         1 UNK         0.0847 
     90 H90       -72.5762   28.4243  -71.3266 H         1 UNK         0.0847 
     91 H91       -71.9715   26.7200  -72.9910 H         1 UNK         0.3141 
     92 H92       -70.3436   25.0240  -75.3488 H         1 UNK         0.0743 
     93 H93       -72.8816   24.9562  -73.6196 H         1 UNK         0.0784 
     94 H94       -71.9783   23.5633  -74.1836 H         1 UNK         0.0784 
     95 H95       -71.2325   24.6700  -73.0499 H         1 UNK         0.0784 
     96 H96       -73.1448   25.7271  -76.1198 H         1 UNK         0.3213 
     97 H97       -72.6816   24.9856  -79.3964 H         1 UNK         0.0855 
     98 H98       -73.8349   22.6525  -77.7705 H         1 UNK         0.0814 
     99 H99       -72.5610   22.5248  -78.9775 H         1 UNK         0.0814 
    100 H100      -74.1813   22.9944  -79.4647 H         1 UNK         0.0814 
    101 H101      -75.0848   24.7556  -77.8067 H         1 UNK         0.3105 
    102 H102      -75.6133   28.2526  -77.4021 H         1 UNK         0.0547 
    103 H103      -76.6016   27.8326  -79.5738 H         1 UNK         0.0837 
    104 H104      -76.9708   26.1692  -79.1677 H         1 UNK         0.0837 
    105 H105      -77.8298   27.4879  -78.3651 H         1 UNK         0.0837 
    106 H106      -77.1919   26.1368  -76.4829 H         1 UNK         0.3020 
    107 H107      -75.4434   25.3617  -73.4572 H         1 UNK         0.1245 
    108 H108      -78.0871   26.8002  -74.0242 H         1 UNK         0.0781 
    109 H109      -76.7565   27.5145  -73.1791 H         1 UNK         0.0781 
    110 H110      -75.8630   26.4086  -70.6294 H         1 UNK         0.0836 
    111 H111      -77.2668   26.3619  -69.5907 H         1 UNK         0.0836 
    112 H112      -77.8266   24.5296  -74.9771 H         1 UNK         0.3022 
    113 H113      -76.3125   21.5578  -76.1656 H         1 UNK         0.0747 
    114 H114      -78.1703   20.4008  -74.9842 H         1 UNK         0.0793 
    115 H115      -76.9162   20.8525  -73.8423 H         1 UNK         0.0793 
    116 H116      -78.3986   21.7937  -73.9247 H         1 UNK         0.0793 
    117 H117      -79.0109   22.4681  -76.2497 H         1 UNK         0.3047 
    118 H118      -78.7163   24.7713  -78.9285 H         1 UNK         0.0822 
    119 H119      -80.2858   23.2466  -80.0617 H         1 UNK         0.0807 
    120 H120      -79.8798   21.9398  -78.9483 H         1 UNK         0.0807 
    121 H121      -78.6765   22.5482  -80.0765 H         1 UNK         0.0807 
    122 H122      -81.0662   23.8946  -77.8150 H         1 UNK         0.2946 
    123 H123      -82.0302   26.0900  -76.5439 H         1 UNK         0.1144 
    124 H124      -81.7776   23.4560  -74.9764 H         1 UNK         0.0793 
    125 H125      -82.6016   23.6761  -76.5171 H         1 UNK         0.0793 
    126 H126      -83.2495   24.4136  -75.0703 H         1 UNK         0.0793 
    127 H127      -80.5459   25.8052  -73.9917 H         1 UNK         0.2896 
@<TRIPOS>BOND
     1    1    2 1    
     2    1   67 1    
     3    1   68 1    
     4    1   69 1    
     5    2    3 2    
     6    2    4 am   BACKBONE|DICT|INTERRES
     7    4    5 1    
     8    4   70 1    
     9    5    6 1    
    10    5   65 1    
    11    5   71 1    
    12    6    7 1    
    13    6   72 1    
    14    6   73 1    
    15    7    8 1    
    16    8    9 1    
    17    8   74 1    
    18    8   75 1    
    19    9   10 ar   
    20    9   14 ar   
    21   10   11 ar   
    22   10   76 1    
    23   11   12 ar   
    24   11   48 1    
    25   12   13 ar   
    26   12   77 1    
    27   13   14 ar   
    28   13   15 1    
    29   14   78 1    
    30   15   16 1    
    31   15   79 1    
    32   15   80 1    
    33   16   17 1    
    34   17   18 1    
    35   17   81 1    
    36   17   82 1    
    37   18   19 1    
    38   18   22 1    
    39   18   83 1    
    40   19   20 am   BACKBONE|DICT|INTERRES
    41   19   21 2    
    42   20   84 1    
    43   20   85 1    
    44   22   23 am   BACKBONE|DICT|INTERRES
    45   22   86 1    
    46   23   24 2    
    47   23   25 1    
    48   25   26 1    
    49   25   27 1    
    50   25   87 1    
    51   26   88 1    
    52   26   89 1    
    53   26   90 1    
    54   27   28 am   BACKBONE|DICT|INTERRES
    55   27   91 1    
    56   28   29 2    
    57   28   30 1    
    58   30   31 1    
    59   30   32 1    
    60   30   92 1    
    61   31   93 1    
    62   31   94 1    
    63   31   95 1    
    64   32   33 am   BACKBONE|DICT|INTERRES
    65   32   96 1    
    66   33   34 2    
    67   33   35 1    
    68   35   36 1    
    69   35   37 1    
    70   35   97 1    
    71   36   98 1    
    72   36   99 1    
    73   36  100 1    
    74   37   38 am   BACKBONE|DICT|INTERRES
    75   37  101 1    
    76   38   39 2    
    77   38   40 1    
    78   40   41 1    
    79   40   42 1    
    80   40  102 1    
    81   41  103 1    
    82   41  104 1    
    83   41  105 1    
    84   42   43 am   BACKBONE|DICT|INTERRES
    85   42  106 1    
    86   43   44 2    
    87   43   45 1    
    88   45   46 1    
    89   45   49 1    
    90   45  107 1    
    91   46   47 1    
    92   46  108 1    
    93   46  109 1    
    94   47   48 1    
    95   48  110 1    
    96   48  111 1    
    97   49   50 am   BACKBONE|DICT|INTERRES
    98   49  112 1    
    99   50   51 2    
   100   50   52 1    
   101   52   53 1    
   102   52   54 1    
   103   52  113 1    
   104   53  114 1    
   105   53  115 1    
   106   53  116 1    
   107   54   55 am   BACKBONE|DICT|INTERRES
   108   54  117 1    
   109   55   56 2    
   110   55   57 1    
   111   57   58 1    
   112   57   59 1    
   113   57  118 1    
   114   58  119 1    
   115   58  120 1    
   116   58  121 1    
   117   59   60 am   BACKBONE|DICT|INTERRES
   118   59  122 1    
   119   60   61 2    
   120   60   62 1    
   121   62   63 1    
   122   62   64 1    
   123   62  123 1    
   124   63  124 1    
   125   63  125 1    
   126   63  126 1    
   127   64   65 am   BACKBONE|DICT|INTERRES
   128   64  127 1    
   129   65   66 2    
@<TRIPOS>SUBSTRUCTURE
     1 UNK         1 GROUP             0       ****    0 ROOT    
