@<TRIPOS>MOLECULE
3R135
127   129    1
SMALL
USER_CHARGES


@<TRIPOS>ATOM
      1 CA        -85.7363   29.4236  -76.3495 C.3       0 UNK        -0.1998 
      2 C         -84.2404   29.1468  -76.3362 C.2       0 UNK         0.4909 
      3 O         -83.5550   29.4430  -77.3152 O.2       0 UNK        -0.5240 
      4 N         -83.7292   28.5848  -75.2322 N.am      1 UNK        -0.4739 
      5 CA        -82.3180   28.2176  -75.0553 C.3       1 UNK         0.0864 
      6 C6        -82.0041   27.9378  -73.5629 C.3       11 UNK        -0.0881 
      7 S7        -80.2216   28.0010  -73.1836 S.3       11 UNK        -0.2682 
      8 C8        -80.2440   28.6699  -71.4923 C.3       11 UNK         0.0289 
      9 C9        -78.8415   28.6743  -70.9085 C.ar      11 UNK        -0.0687 
     10 C10       -78.3453   27.5320  -70.2738 C.ar      11 UNK        -0.0823 
     11 C11       -77.0267   27.4980  -69.8118 C.ar      11 UNK        -0.0830 
     12 C12       -76.2240   28.6379  -69.9298 C.ar      11 UNK        -0.1021 
     13 C13       -76.7046   29.7789  -70.5778 C.ar      11 UNK        -0.0753 
     14 C14       -78.0184   29.7952  -71.0566 C.ar      11 UNK        -0.0933 
     15 C15       -75.7902   30.9736  -70.8091 C.3       11 UNK         0.0166 
     16 S16       -74.8299   30.7893  -72.3507 S.3       11 UNK        -0.2615 
     17 C17       -73.4813   29.6710  -71.8299 C.3       11 UNK        -0.0865 
     18 CA        -72.1649   29.9087  -72.6179 C.3       10 UNK         0.0862 
     19 C         -70.9544   29.1894  -71.9475 C.2       10 UNK         0.5551 
     20 N         -70.1385   28.4215  -72.6608 N.am      10 UNK        -0.7319 
     21 O         -70.7409   29.3418  -70.7473 O.2       10 UNK        -0.5018 
     22 N         -72.3268   29.5940  -74.0472 N.am      10 UNK        -0.4509 
     23 C         -71.6456   30.1795  -75.0391 C.2       10 UNK         0.4899 
     24 O         -70.8625   31.1163  -74.8707 O.2       10 UNK        -0.4839 
     25 CA        -71.8669   29.6019  -76.4519 C.3       9 UNK         0.0222 
     26 CB        -70.8873   30.1754  -77.4972 C.3       9 UNK        -0.1966 
     27 N         -71.8485   28.1337  -76.4873 N.am      9 UNK        -0.4218 
     28 C         -70.8675   27.3137  -76.0760 C.2       9 UNK         0.5020 
     29 O         -69.8119   27.7127  -75.5824 O.2       9 UNK        -0.5274 
     30 CA        -71.0927   25.7910  -76.1954 C.3       8 UNK         0.0270 
     31 CB        -71.0903   25.1378  -74.8025 C.3       8 UNK        -0.1976 
     32 N         -72.3317   25.4230  -76.8853 N.am      8 UNK        -0.4313 
     33 C         -72.5365   25.4962  -78.2075 C.2       8 UNK         0.5041 
     34 O         -71.6634   25.7957  -79.0222 O.2       8 UNK        -0.5577 
     35 CA        -73.9777   25.2538  -78.6917 C.3       7 UNK         0.0284 
     36 CB        -74.2468   23.7552  -78.9036 C.3       7 UNK        -0.1958 
     37 N         -74.9704   25.8157  -77.7687 N.am      7 UNK        -0.4454 
     38 C         -75.1346   27.1282  -77.5436 C.2       7 UNK         0.5089 
     39 O         -74.5218   28.0073  -78.1479 O.2       7 UNK        -0.5125 
     40 CA        -76.0887   27.5270  -76.4092 C.3       6 UNK         0.0408 
     41 CB        -77.5359   27.6197  -76.9128 C.3       6 UNK        -0.1791 
     42 N         -76.0118   26.5986  -75.2812 N.am      6 UNK        -0.4762 
     43 C         -74.9893   26.5550  -74.4119 C.2       6 UNK         0.5007 
     44 O         -74.0173   27.3085  -74.4620 O.2       6 UNK        -0.5032 
     45 CA        -75.0617   25.4893  -73.2973 C.3       5 UNK         0.0783 
     46 C46       -75.8322   26.0963  -72.1086 C.3       11 UNK        -0.0857 
     47 S47       -76.0927   25.0004  -70.6700 S.3       11 UNK        -0.2512 
     48 C48       -76.4232   26.1907  -69.3105 C.3       11 UNK         0.0225 
     49 N         -75.6504   24.2304  -73.7571 N.am      5 UNK        -0.4615 
     50 C         -75.1917   23.4855  -74.7714 C.2       4 UNK         0.5053 
     51 O         -74.1616   23.7438  -75.3931 O.2       4 UNK        -0.5105 
     52 CA        -76.0519   22.2845  -75.2045 C.3       4 UNK         0.0263 
     53 CB        -75.4913   20.9845  -74.6076 C.3       4 UNK        -0.1981 
     54 N         -77.4744   22.4079  -74.8573 N.am      4 UNK        -0.4224 
     55 C         -78.2926   23.3806  -75.2843 C.2       3 UNK         0.4895 
     56 O         -77.9372   24.3065  -76.0189 O.2       3 UNK        -0.5091 
     57 CA        -79.7242   23.3419  -74.7420 C.3       3 UNK         0.0250 
     58 CB        -79.7796   23.9406  -73.3241 C.3       3 UNK        -0.1996 
     59 N         -80.5960   24.1155  -75.6205 N.am      3 UNK        -0.4254 
     60 C         -81.8564   23.8062  -75.9410 C.2       2 UNK         0.5004 
     61 O         -82.4448   22.8089  -75.5177 O.2       2 UNK        -0.5226 
     62 CA        -82.5927   24.8094  -76.8504 C.3       2 UNK         0.0269 
     63 CB        -83.9403   24.2691  -77.3653 C.3       2 UNK        -0.1926 
     64 N         -82.8296   26.0669  -76.1382 N.am      2 UNK        -0.4687 
     65 C         -81.9114   27.0257  -75.9505 C.2       1 UNK         0.5165 
     66 O         -80.7866   26.9863  -76.4505 O.2       1 UNK        -0.5079 
     67 H67       -86.2163   29.1203  -75.4193 H         1 UNK         0.0900 
     68 H68       -85.9195   30.4881  -76.4937 H         1 UNK         0.0900 
     69 H69       -86.2103   28.8822  -77.1678 H         1 UNK         0.0900 
     70 H70       -84.3422   28.3744  -74.4570 H         1 UNK         0.2959 
     71 H71       -81.7205   29.0748  -75.3750 H         1 UNK         0.1079 
     72 H72       -82.5021   28.6849  -72.9425 H         1 UNK         0.0837 
     73 H73       -82.4022   26.9719  -73.2450 H         1 UNK         0.0837 
     74 H74       -80.6554   29.6805  -71.5028 H         1 UNK         0.0685 
     75 H75       -80.9067   28.0673  -70.8690 H         1 UNK         0.0685 
     76 H76       -78.9611   26.6455  -70.2041 H         1 UNK         0.1434 
     77 H77       -75.1991   28.6110  -69.5866 H         1 UNK         0.1329 
     78 H78       -78.3899   30.6681  -71.5759 H         1 UNK         0.1335 
     79 H79       -76.3858   31.8851  -70.8782 H         1 UNK         0.0680 
     80 H80       -75.1209   31.1157  -69.9594 H         1 UNK         0.0680 
     81 H81       -73.3144   29.8171  -70.7614 H         1 UNK         0.1032 
     82 H82       -73.8075   28.6391  -71.9484 H         1 UNK         0.1032 
     83 H83       -71.9370   30.9729  -72.5333 H         1 UNK         0.0461 
     84 H84       -69.3618   27.9763  -72.1994 H         1 UNK         0.3453 
     85 H85       -70.2517   28.3171  -73.6619 H         1 UNK         0.3453 
     86 H86       -72.9370   28.8083  -74.2633 H         1 UNK         0.2984 
     87 H87       -72.8744   29.8995  -76.7458 H         1 UNK         0.0554 
     88 H88       -71.0924   29.7781  -78.4913 H         1 UNK         0.0847 
     89 H89       -69.8509   29.9430  -77.2501 H         1 UNK         0.0847 
     90 H90       -70.9719   31.2610  -77.5597 H         1 UNK         0.0847 
     91 H91       -72.6895   27.7072  -76.8537 H         1 UNK         0.3141 
     92 H92       -70.2529   25.3851  -76.7631 H         1 UNK         0.0743 
     93 H93       -71.8822   25.5382  -74.1697 H         1 UNK         0.0784 
     94 H94       -71.2271   24.0581  -74.8684 H         1 UNK         0.0784 
     95 H95       -70.1444   25.3132  -74.2882 H         1 UNK         0.0784 
     96 H96       -73.0877   25.0709  -76.3028 H         1 UNK         0.3213 
     97 H97       -74.0927   25.7584  -79.6537 H         1 UNK         0.0855 
     98 H98       -74.1302   23.1837  -77.9828 H         1 UNK         0.0814 
     99 H99       -73.5516   23.3373  -79.6329 H         1 UNK         0.0814 
    100 H100      -75.2544   23.5817  -79.2817 H         1 UNK         0.0814 
    101 H101      -75.5057   25.1645  -77.2113 H         1 UNK         0.3105 
    102 H102      -75.7936   28.5179  -76.0565 H         1 UNK         0.0547 
    103 H103      -78.2103   27.9414  -76.1188 H         1 UNK         0.0837 
    104 H104      -77.6215   28.3447  -77.7230 H         1 UNK         0.0837 
    105 H105      -77.8999   26.6645  -77.2922 H         1 UNK         0.0837 
    106 H106      -76.7561   25.9139  -75.2061 H         1 UNK         0.3020 
    107 H107      -74.0398   25.2745  -72.9783 H         1 UNK         0.1245 
    108 H108      -76.8137   26.4514  -72.4318 H         1 UNK         0.0781 
    109 H109      -75.2844   26.9707  -71.7640 H         1 UNK         0.0781 
    110 H110      -75.4893   26.3832  -68.7802 H         1 UNK         0.0836 
    111 H111      -77.0943   25.7288  -68.5849 H         1 UNK         0.0836 
    112 H112      -76.4889   23.9341  -73.2810 H         1 UNK         0.3022 
    113 H113      -75.9852   22.2188  -76.2924 H         1 UNK         0.0747 
    114 H114      -76.0265   20.1115  -74.9817 H         1 UNK         0.0793 
    115 H115      -74.4407   20.8550  -74.8726 H         1 UNK         0.0793 
    116 H116      -75.5554   20.9789  -73.5186 H         1 UNK         0.0793 
    117 H117      -77.8480   21.6966  -74.2447 H         1 UNK         0.3047 
    118 H118      -80.0520   22.3003  -74.7149 H         1 UNK         0.0822 
    119 H119      -79.4279   24.9733  -73.3092 H         1 UNK         0.0807 
    120 H120      -79.1598   23.3740  -72.6282 H         1 UNK         0.0807 
    121 H121      -80.7962   23.9315  -72.9304 H         1 UNK         0.0807 
    122 H122      -80.1779   24.9513  -76.0181 H         1 UNK         0.2946 
    123 H123      -81.9552   24.9980  -77.7177 H         1 UNK         0.1144 
    124 H124      -83.8026   23.3340  -77.9099 H         1 UNK         0.0793 
    125 H125      -84.6380   24.0727  -76.5502 H         1 UNK         0.0793 
    126 H126      -84.4138   24.9740  -78.0490 H         1 UNK         0.0793 
    127 H127      -83.7270   26.1704  -75.6872 H         1 UNK         0.2896 
@<TRIPOS>BOND
     1    1    2 1    
     2    1   67 1    
     3    1   68 1    
     4    1   69 1    
     5    2    3 2    
     6    2    4 am   BACKBONE|DICT|INTERRES
     7    4    5 1    
     8    4   70 1    
     9    5    6 1    
    10    5   65 1    
    11    5   71 1    
    12    6    7 1    
    13    6   72 1    
    14    6   73 1    
    15    7    8 1    
    16    8    9 1    
    17    8   74 1    
    18    8   75 1    
    19    9   10 ar   
    20    9   14 ar   
    21   10   11 ar   
    22   10   76 1    
    23   11   12 ar   
    24   11   48 1    
    25   12   13 ar   
    26   12   77 1    
    27   13   14 ar   
    28   13   15 1    
    29   14   78 1    
    30   15   16 1    
    31   15   79 1    
    32   15   80 1    
    33   16   17 1    
    34   17   18 1    
    35   17   81 1    
    36   17   82 1    
    37   18   19 1    
    38   18   22 1    
    39   18   83 1    
    40   19   20 am   BACKBONE|DICT|INTERRES
    41   19   21 2    
    42   20   84 1    
    43   20   85 1    
    44   22   23 am   BACKBONE|DICT|INTERRES
    45   22   86 1    
    46   23   24 2    
    47   23   25 1    
    48   25   26 1    
    49   25   27 1    
    50   25   87 1    
    51   26   88 1    
    52   26   89 1    
    53   26   90 1    
    54   27   28 am   BACKBONE|DICT|INTERRES
    55   27   91 1    
    56   28   29 2    
    57   28   30 1    
    58   30   31 1    
    59   30   32 1    
    60   30   92 1    
    61   31   93 1    
    62   31   94 1    
    63   31   95 1    
    64   32   33 am   BACKBONE|DICT|INTERRES
    65   32   96 1    
    66   33   34 2    
    67   33   35 1    
    68   35   36 1    
    69   35   37 1    
    70   35   97 1    
    71   36   98 1    
    72   36   99 1    
    73   36  100 1    
    74   37   38 am   BACKBONE|DICT|INTERRES
    75   37  101 1    
    76   38   39 2    
    77   38   40 1    
    78   40   41 1    
    79   40   42 1    
    80   40  102 1    
    81   41  103 1    
    82   41  104 1    
    83   41  105 1    
    84   42   43 am   BACKBONE|DICT|INTERRES
    85   42  106 1    
    86   43   44 2    
    87   43   45 1    
    88   45   46 1    
    89   45   49 1    
    90   45  107 1    
    91   46   47 1    
    92   46  108 1    
    93   46  109 1    
    94   47   48 1    
    95   48  110 1    
    96   48  111 1    
    97   49   50 am   BACKBONE|DICT|INTERRES
    98   49  112 1    
    99   50   51 2    
   100   50   52 1    
   101   52   53 1    
   102   52   54 1    
   103   52  113 1    
   104   53  114 1    
   105   53  115 1    
   106   53  116 1    
   107   54   55 am   BACKBONE|DICT|INTERRES
   108   54  117 1    
   109   55   56 2    
   110   55   57 1    
   111   57   58 1    
   112   57   59 1    
   113   57  118 1    
   114   58  119 1    
   115   58  120 1    
   116   58  121 1    
   117   59   60 am   BACKBONE|DICT|INTERRES
   118   59  122 1    
   119   60   61 2    
   120   60   62 1    
   121   62   63 1    
   122   62   64 1    
   123   62  123 1    
   124   63  124 1    
   125   63  125 1    
   126   63  126 1    
   127   64   65 am   BACKBONE|DICT|INTERRES
   128   64  127 1    
   129   65   66 2    
@<TRIPOS>SUBSTRUCTURE
     1 UNK         1 GROUP             0       ****    0 ROOT    
