@<TRIPOS>MOLECULE
3R135
127   129    1
SMALL
USER_CHARGES


@<TRIPOS>ATOM
      1 CA        -83.2476   23.0805  -70.6589 C.3       0 UNK        -0.1998 
      2 C         -82.9424   24.4429  -71.2628 C.2       0 UNK         0.4909 
      3 O         -83.8483   25.2629  -71.4139 O.2       0 UNK        -0.5240 
      4 N         -81.6721   24.6905  -71.6089 N.am      1 UNK        -0.4739 
      5 CA        -81.1942   25.9495  -72.1977 C.3       1 UNK         0.0864 
      6 C6        -79.6524   26.0698  -72.1131 C.3       11 UNK        -0.0881 
      7 S7        -79.0363   26.1809  -70.3989 S.3       11 UNK        -0.2682 
      8 C8        -79.2684   27.9481  -70.0091 C.3       11 UNK         0.0289 
      9 C9        -78.3894   28.8542  -70.8599 C.ar      11 UNK        -0.0687 
     10 C10       -78.8916   29.4044  -72.0430 C.ar      11 UNK        -0.0823 
     11 C11       -78.0855   30.2084  -72.8508 C.ar      11 UNK        -0.0830 
     12 C12       -76.7817   30.5036  -72.4440 C.ar      11 UNK        -0.1021 
     13 C13       -76.2753   29.9816  -71.2503 C.ar      11 UNK        -0.0753 
     14 C14       -77.0802   29.1496  -70.4650 C.ar      11 UNK        -0.0933 
     15 C15       -74.8591   30.3237  -70.8181 C.3       11 UNK         0.0166 
     16 S16       -73.6659   29.1374  -71.5021 S.3       11 UNK        -0.2615 
     17 C17       -72.1094   30.0773  -71.3316 C.3       11 UNK        -0.0865 
     18 CA        -71.7241   30.8276  -72.6353 C.3       10 UNK         0.0862 
     19 C         -70.4643   31.7162  -72.4228 C.2       10 UNK         0.5551 
     20 N         -69.3688   31.5034  -73.1419 N.am      10 UNK        -0.7319 
     21 O         -70.4861   32.6217  -71.5928 O.2       10 UNK        -0.5018 
     22 N         -71.6340   29.9040  -73.7761 N.am      10 UNK        -0.4509 
     23 C         -71.8124   30.2211  -75.0621 C.2       10 UNK         0.4899 
     24 O         -72.0360   31.3662  -75.4555 O.2       10 UNK        -0.4839 
     25 CA        -71.7611   29.0762  -76.0941 C.3       9 UNK         0.0222 
     26 CB        -70.3979   29.0291  -76.8114 C.3       9 UNK        -0.1966 
     27 N         -72.1476   27.7536  -75.5763 N.am      9 UNK        -0.4218 
     28 C         -71.5053   26.9678  -74.6982 C.2       9 UNK         0.5020 
     29 O         -70.4406   27.2705  -74.1585 O.2       9 UNK        -0.5274 
     30 CA        -72.1797   25.6421  -74.3127 C.3       8 UNK         0.0270 
     31 CB        -73.0755   25.8419  -73.0803 C.3       8 UNK        -0.1976 
     32 N         -72.9629   25.0521  -75.4013 N.am      8 UNK        -0.4313 
     33 C         -72.4235   24.4399  -76.4660 C.2       8 UNK         0.5041 
     34 O         -71.2112   24.2963  -76.6315 O.2       8 UNK        -0.5577 
     35 CA        -73.3933   23.8903  -77.5267 C.3       7 UNK         0.0284 
     36 CB        -74.0181   22.5668  -77.0589 C.3       7 UNK        -0.1958 
     37 N         -74.4454   24.8457  -77.8799 N.am      7 UNK        -0.4454 
     38 C         -74.2272   25.9951  -78.5355 C.2       7 UNK         0.5089 
     39 O         -73.1263   26.3498  -78.9572 O.2       7 UNK        -0.5125 
     40 CA        -75.4389   26.9188  -78.7404 C.3       6 UNK         0.0408 
     41 CB        -76.2015   26.5445  -80.0211 C.3       6 UNK        -0.1791 
     42 N         -76.3571   26.9146  -77.6000 N.am      6 UNK        -0.4762 
     43 C         -76.0562   27.3875  -76.3811 C.2       6 UNK         0.5007 
     44 O         -74.9599   27.8610  -76.0824 O.2       6 UNK        -0.5032 
     45 CA        -77.1563   27.2579  -75.3063 C.3       5 UNK         0.0783 
     46 C46       -78.3116   28.2714  -75.5400 C.3       11 UNK        -0.0857 
     47 S47       -77.7868   30.0243  -75.6025 S.3       11 UNK        -0.2512 
     48 C48       -78.6243   30.7578  -74.1621 C.3       11 UNK         0.0225 
     49 N         -77.6483   25.8722  -75.2447 N.am      5 UNK        -0.4615 
     50 C         -76.8848   24.8079  -74.9365 C.2       4 UNK         0.5053 
     51 O         -75.7145   24.9002  -74.5726 O.2       4 UNK        -0.5105 
     52 CA        -77.4746   23.3940  -75.1196 C.3       4 UNK         0.0263 
     53 CB        -77.9764   22.8078  -73.7904 C.3       4 UNK        -0.1981 
     54 N         -78.5362   23.3114  -76.1191 N.am      4 UNK        -0.4224 
     55 C         -78.4084   23.6177  -77.4176 C.2       3 UNK         0.4895 
     56 O         -77.3340   23.8984  -77.9505 O.2       3 UNK        -0.5091 
     57 CA        -79.7115   23.6850  -78.2398 C.3       3 UNK         0.0250 
     58 CB        -79.9016   22.3927  -79.0489 C.3       3 UNK        -0.1996 
     59 N         -80.9166   23.9386  -77.4316 N.am      3 UNK        -0.4254 
     60 C         -81.1068   25.0136  -76.6497 C.2       2 UNK         0.5004 
     61 O         -80.2823   25.9230  -76.5585 O.2       2 UNK        -0.5226 
     62 CA        -82.3757   25.0620  -75.7771 C.3       2 UNK         0.0269 
     63 CB        -83.3569   23.8968  -76.0219 C.3       2 UNK        -0.1926 
     64 N         -81.9976   25.0716  -74.3611 N.am      2 UNK        -0.4687 
     65 C         -81.6697   26.1629  -73.6523 C.2       1 UNK         0.5165 
     66 O         -81.7284   27.3105  -74.0955 O.2       1 UNK        -0.5079 
     67 H67       -83.6579   23.1985  -69.6564 H         1 UNK         0.0900 
     68 H68       -83.9827   22.5560  -71.2686 H         1 UNK         0.0900 
     69 H69       -82.3571   22.4561  -70.5891 H         1 UNK         0.0900 
     70 H70       -80.9633   23.9937  -71.4282 H         1 UNK         0.2959 
     71 H71       -81.6302   26.7680  -71.6209 H         1 UNK         0.1079 
     72 H72       -79.2818   26.9172  -72.6857 H         1 UNK         0.0837 
     73 H73       -79.1809   25.2046  -72.5737 H         1 UNK         0.0837 
     74 H74       -80.3194   28.2137  -70.1301 H         1 UNK         0.0685 
     75 H75       -79.0396   28.1046  -68.9538 H         1 UNK         0.0685 
     76 H76       -79.9057   29.1840  -72.3486 H         1 UNK         0.1434 
     77 H77       -76.1562   31.1310  -73.0648 H         1 UNK         0.1329 
     78 H78       -76.6874   28.7305  -69.5486 H         1 UNK         0.1335 
     79 H79       -74.7816   30.3305  -69.7298 H         1 UNK         0.0680 
     80 H80       -74.6076   31.3313  -71.1536 H         1 UNK         0.0680 
     81 H81       -72.2027   30.7725  -70.4947 H         1 UNK         0.1032 
     82 H82       -71.3193   29.3781  -71.0520 H         1 UNK         0.1032 
     83 H83       -72.5353   31.5255  -72.8520 H         1 UNK         0.0461 
     84 H84       -68.5597   32.0872  -72.9994 H         1 UNK         0.3453 
     85 H85       -69.3466   30.7621  -73.8237 H         1 UNK         0.3453 
     86 H86       -71.3829   28.9463  -73.5617 H         1 UNK         0.2984 
     87 H87       -72.5150   29.3136  -76.8465 H         1 UNK         0.0554 
     88 H88       -70.1805   29.9827  -77.2942 H         1 UNK         0.0847 
     89 H89       -70.3866   28.2631  -77.5870 H         1 UNK         0.0847 
     90 H90       -69.5784   28.8224  -76.1229 H         1 UNK         0.0847 
     91 H91       -73.0809   27.4645  -75.8598 H         1 UNK         0.3141 
     92 H92       -71.3895   24.9386  -74.0418 H         1 UNK         0.0743 
     93 H93       -72.5054   26.2468  -72.2430 H         1 UNK         0.0784 
     94 H94       -73.8923   26.5359  -73.2847 H         1 UNK         0.0784 
     95 H95       -73.5127   24.8997  -72.7495 H         1 UNK         0.0784 
     96 H96       -73.9755   25.0863  -75.3007 H         1 UNK         0.3213 
     97 H97       -72.8178   23.6872  -78.4327 H         1 UNK         0.0855 
     98 H98       -74.5007   22.6703  -76.0882 H         1 UNK         0.0814 
     99 H99       -73.2530   21.7965  -76.9546 H         1 UNK         0.0814 
    100 H100      -74.7578   22.1969  -77.7695 H         1 UNK         0.0814 
    101 H101      -75.4010   24.6069  -77.6356 H         1 UNK         0.3105 
    102 H102      -75.0616   27.9370  -78.8574 H         1 UNK         0.0547 
    103 H103      -77.0214   27.2368  -80.2124 H         1 UNK         0.0837 
    104 H104      -75.5419   26.5779  -80.8892 H         1 UNK         0.0837 
    105 H105      -76.6167   25.5376  -79.9683 H         1 UNK         0.0837 
    106 H106      -77.2610   26.4868  -77.7439 H         1 UNK         0.3020 
    107 H107      -76.6960   27.4868  -74.3417 H         1 UNK         0.1245 
    108 H108      -79.0727   28.1508  -74.7689 H         1 UNK         0.0781 
    109 H109      -78.8170   28.0576  -76.4827 H         1 UNK         0.0781 
    110 H110      -79.6995   30.5921  -74.2486 H         1 UNK         0.0836 
    111 H111      -78.4793   31.8388  -74.1824 H         1 UNK         0.0836 
    112 H112      -78.5924   25.7254  -75.5905 H         1 UNK         0.3022 
    113 H113      -76.6605   22.7584  -75.4677 H         1 UNK         0.0747 
    114 H114      -78.0826   21.7250  -73.8601 H         1 UNK         0.0793 
    115 H115      -77.2777   23.0087  -72.9765 H         1 UNK         0.0793 
    116 H116      -78.9464   23.2106  -73.5045 H         1 UNK         0.0793 
    117 H117      -79.4581   23.0781  -75.7826 H         1 UNK         0.3047 
    118 H118      -79.6042   24.5164  -78.9396 H         1 UNK         0.0822 
    119 H119      -79.0311   22.1937  -79.6760 H         1 UNK         0.0807 
    120 H120      -80.7650   22.4615  -79.7110 H         1 UNK         0.0807 
    121 H121      -80.0413   21.5263  -78.4012 H         1 UNK         0.0807 
    122 H122      -81.6356   23.2296  -77.4566 H         1 UNK         0.2946 
    123 H123      -82.8903   25.9941  -76.0220 H         1 UNK         0.1144 
    124 H124      -84.2536   24.0125  -75.4124 H         1 UNK         0.0793 
    125 H125      -82.9202   22.9276  -75.7774 H         1 UNK         0.0793 
    126 H126      -83.6868   23.8670  -77.0614 H         1 UNK         0.0793 
    127 H127      -81.9273   24.1754  -73.9020 H         1 UNK         0.2896 
@<TRIPOS>BOND
     1    1    2 1    
     2    1   67 1    
     3    1   68 1    
     4    1   69 1    
     5    2    3 2    
     6    2    4 am   BACKBONE|DICT|INTERRES
     7    4    5 1    
     8    4   70 1    
     9    5    6 1    
    10    5   65 1    
    11    5   71 1    
    12    6    7 1    
    13    6   72 1    
    14    6   73 1    
    15    7    8 1    
    16    8    9 1    
    17    8   74 1    
    18    8   75 1    
    19    9   10 ar   
    20    9   14 ar   
    21   10   11 ar   
    22   10   76 1    
    23   11   12 ar   
    24   11   48 1    
    25   12   13 ar   
    26   12   77 1    
    27   13   14 ar   
    28   13   15 1    
    29   14   78 1    
    30   15   16 1    
    31   15   79 1    
    32   15   80 1    
    33   16   17 1    
    34   17   18 1    
    35   17   81 1    
    36   17   82 1    
    37   18   19 1    
    38   18   22 1    
    39   18   83 1    
    40   19   20 am   BACKBONE|DICT|INTERRES
    41   19   21 2    
    42   20   84 1    
    43   20   85 1    
    44   22   23 am   BACKBONE|DICT|INTERRES
    45   22   86 1    
    46   23   24 2    
    47   23   25 1    
    48   25   26 1    
    49   25   27 1    
    50   25   87 1    
    51   26   88 1    
    52   26   89 1    
    53   26   90 1    
    54   27   28 am   BACKBONE|DICT|INTERRES
    55   27   91 1    
    56   28   29 2    
    57   28   30 1    
    58   30   31 1    
    59   30   32 1    
    60   30   92 1    
    61   31   93 1    
    62   31   94 1    
    63   31   95 1    
    64   32   33 am   BACKBONE|DICT|INTERRES
    65   32   96 1    
    66   33   34 2    
    67   33   35 1    
    68   35   36 1    
    69   35   37 1    
    70   35   97 1    
    71   36   98 1    
    72   36   99 1    
    73   36  100 1    
    74   37   38 am   BACKBONE|DICT|INTERRES
    75   37  101 1    
    76   38   39 2    
    77   38   40 1    
    78   40   41 1    
    79   40   42 1    
    80   40  102 1    
    81   41  103 1    
    82   41  104 1    
    83   41  105 1    
    84   42   43 am   BACKBONE|DICT|INTERRES
    85   42  106 1    
    86   43   44 2    
    87   43   45 1    
    88   45   46 1    
    89   45   49 1    
    90   45  107 1    
    91   46   47 1    
    92   46  108 1    
    93   46  109 1    
    94   47   48 1    
    95   48  110 1    
    96   48  111 1    
    97   49   50 am   BACKBONE|DICT|INTERRES
    98   49  112 1    
    99   50   51 2    
   100   50   52 1    
   101   52   53 1    
   102   52   54 1    
   103   52  113 1    
   104   53  114 1    
   105   53  115 1    
   106   53  116 1    
   107   54   55 am   BACKBONE|DICT|INTERRES
   108   54  117 1    
   109   55   56 2    
   110   55   57 1    
   111   57   58 1    
   112   57   59 1    
   113   57  118 1    
   114   58  119 1    
   115   58  120 1    
   116   58  121 1    
   117   59   60 am   BACKBONE|DICT|INTERRES
   118   59  122 1    
   119   60   61 2    
   120   60   62 1    
   121   62   63 1    
   122   62   64 1    
   123   62  123 1    
   124   63  124 1    
   125   63  125 1    
   126   63  126 1    
   127   64   65 am   BACKBONE|DICT|INTERRES
   128   64  127 1    
   129   65   66 2    
@<TRIPOS>SUBSTRUCTURE
     1 UNK         1 GROUP             0       ****    0 ROOT    
