@<TRIPOS>MOLECULE
3R135
127   129    1
SMALL
USER_CHARGES


@<TRIPOS>ATOM
      1 CA        -81.4025   21.8679  -73.5220 C.3       0 UNK        -0.1998 
      2 C         -81.8449   23.3100  -73.7149 C.2       0 UNK         0.4909 
      3 O         -82.3435   23.6600  -74.7852 O.2       0 UNK        -0.5240 
      4 N         -81.6518   24.1526  -72.6922 N.am      1 UNK        -0.4739 
      5 CA        -81.9451   25.5906  -72.6888 C.3       1 UNK         0.0864 
      6 C6        -81.7232   26.2360  -71.2926 C.3       11 UNK        -0.0881 
      7 S7        -80.2105   25.6877  -70.4168 S.3       11 UNK        -0.2682 
      8 C8        -79.6906   27.2015  -69.5525 C.3       11 UNK         0.0289 
      9 C9        -78.5524   27.9104  -70.2725 C.ar      11 UNK        -0.0687 
     10 C10       -78.8135   28.9407  -71.1804 C.ar      11 UNK        -0.0823 
     11 C11       -77.7599   29.6342  -71.7859 C.ar      11 UNK        -0.0830 
     12 C12       -76.4419   29.2923  -71.4708 C.ar      11 UNK        -0.1021 
     13 C13       -76.1638   28.2350  -70.5990 C.ar      11 UNK        -0.0753 
     14 C14       -77.2280   27.5550  -69.9982 C.ar      11 UNK        -0.0933 
     15 C15       -74.7303   27.8234  -70.2716 C.3       11 UNK         0.0166 
     16 S16       -73.5980   27.8703  -71.7040 S.3       11 UNK        -0.2615 
     17 C17       -72.7867   29.4977  -71.5134 C.3       11 UNK        -0.0865 
     18 CA        -72.7328   30.3326  -72.8214 C.3       10 UNK         0.0862 
     19 C         -72.0688   31.7141  -72.5455 C.2       10 UNK         0.5551 
     20 N         -70.8774   31.9955  -73.0594 N.am      10 UNK        -0.7319 
     21 O         -72.6478   32.5428  -71.8475 O.2       10 UNK        -0.5018 
     22 N         -72.1518   29.5641  -73.9349 N.am      10 UNK        -0.4509 
     23 C         -72.1813   29.9111  -75.2268 C.2       10 UNK         0.4899 
     24 O         -72.6471   30.9750  -75.6365 O.2       10 UNK        -0.4839 
     25 CA        -71.6132   28.9092  -76.2518 C.3       9 UNK         0.0222 
     26 CB        -70.1278   29.1965  -76.5467 C.3       9 UNK        -0.1966 
     27 N         -71.8428   27.4901  -75.9338 N.am      9 UNK        -0.4218 
     28 C         -71.3147   26.7429  -74.9533 C.2       9 UNK         0.5020 
     29 O         -70.5199   27.1818  -74.1205 O.2       9 UNK        -0.5274 
     30 CA        -71.7451   25.2666  -74.8644 C.3       8 UNK         0.0270 
     31 CB        -72.2344   24.9020  -73.4522 C.3       8 UNK        -0.1976 
     32 N         -72.7869   24.9049  -75.8313 N.am      8 UNK        -0.4313 
     33 C         -72.5505   24.3506  -77.0268 C.2       8 UNK         0.5041 
     34 O         -71.4220   24.1368  -77.4719 O.2       8 UNK        -0.5577 
     35 CA        -73.7753   23.9557  -77.8678 C.3       7 UNK         0.0284 
     36 CB        -74.3963   22.6540  -77.3356 C.3       7 UNK        -0.1958 
     37 N         -74.8018   24.9985  -77.9460 N.am      7 UNK        -0.4454 
     38 C         -74.6427   26.1737  -78.5717 C.2       7 UNK         0.5089 
     39 O         -73.5922   26.5295  -79.1065 O.2       7 UNK        -0.5125 
     40 CA        -75.8593   27.1154  -78.6097 C.3       6 UNK         0.0408 
     41 CB        -76.8883   26.6399  -79.6475 C.3       6 UNK        -0.1791 
     42 N         -76.5058   27.2638  -77.3059 N.am      6 UNK        -0.4762 
     43 C         -75.9312   27.8382  -76.2385 C.2       6 UNK         0.5007 
     44 O         -74.8121   28.3443  -76.2617 O.2       6 UNK        -0.5032 
     45 CA        -76.7225   27.8001  -74.9159 C.3       5 UNK         0.0783 
     46 C46       -77.8315   28.8857  -74.8941 C.3       11 UNK        -0.0857 
     47 S47       -77.1989   30.5162  -74.3790 S.3       11 UNK        -0.2512 
     48 C48       -78.0438   30.7562  -72.7780 C.3       11 UNK         0.0225 
     49 N         -77.2649   26.4667  -74.6415 N.am      5 UNK        -0.4615 
     50 C         -76.5617   25.3268  -74.5783 C.2       4 UNK         0.5053 
     51 O         -75.3385   25.2578  -74.6854 O.2       4 UNK        -0.5105 
     52 CA        -77.3743   24.0297  -74.4533 C.3       4 UNK         0.0263 
     53 CB        -77.8044   23.7795  -72.9994 C.3       4 UNK        -0.1981 
     54 N         -78.5444   24.0489  -75.3342 N.am      4 UNK        -0.4224 
     55 C         -78.4768   23.9993  -76.6734 C.2       3 UNK         0.4895 
     56 O         -77.4281   23.8565  -77.3011 O.2       3 UNK        -0.5091 
     57 CA        -79.7913   24.1905  -77.4460 C.3       3 UNK         0.0250 
     58 CB        -80.5398   22.8569  -77.5938 C.3       3 UNK        -0.1996 
     59 N         -80.6591   25.1922  -76.8205 N.am      3 UNK        -0.4254 
     60 C         -80.3909   26.5076  -76.8247 C.2       2 UNK         0.5004 
     61 O         -79.4201   27.0005  -77.3982 O.2       2 UNK        -0.5226 
     62 CA        -81.3295   27.4296  -76.0242 C.3       2 UNK         0.0269 
     63 CB        -82.4674   27.9447  -76.9191 C.3       2 UNK        -0.1926 
     64 N         -81.8961   26.8031  -74.8255 N.am      2 UNK        -0.4687 
     65 C         -81.1729   26.3206  -73.8053 C.2       1 UNK         0.5165 
     66 O         -79.9450   26.3827  -73.7591 O.2       1 UNK        -0.5079 
     67 H67       -82.2310   21.1911  -73.7285 H         1 UNK         0.0900 
     68 H68       -81.0580   21.6807  -72.5050 H         1 UNK         0.0900 
     69 H69       -80.5882   21.6294  -74.2054 H         1 UNK         0.0900 
     70 H70       -81.2053   23.8192  -71.8490 H         1 UNK         0.2959 
     71 H71       -83.0091   25.6880  -72.9155 H         1 UNK         0.1079 
     72 H72       -81.7374   27.3250  -71.3680 H         1 UNK         0.0837 
     73 H73       -82.5669   25.9825  -70.6489 H         1 UNK         0.0837 
     74 H74       -79.3671   26.9275  -68.5472 H         1 UNK         0.0685 
     75 H75       -80.5380   27.8747  -69.4153 H         1 UNK         0.0685 
     76 H76       -79.8368   29.2072  -71.4058 H         1 UNK         0.1434 
     77 H77       -75.6331   29.8394  -71.9310 H         1 UNK         0.1329 
     78 H78       -77.0276   26.7501  -69.3042 H         1 UNK         0.1335 
     79 H79       -74.3493   28.4457  -69.4613 H         1 UNK         0.0680 
     80 H80       -74.7231   26.8000  -69.8933 H         1 UNK         0.0680 
     81 H81       -73.3013   30.0650  -70.7356 H         1 UNK         0.1032 
     82 H82       -71.7772   29.3222  -71.1368 H         1 UNK         0.1032 
     83 H83       -73.7610   30.5528  -73.1137 H         1 UNK         0.0461 
     84 H84       -70.4568   32.8927  -72.8761 H         1 UNK         0.3453 
     85 H85       -70.4022   31.3204  -73.6363 H         1 UNK         0.3453 
     86 H86       -71.7079   28.6837  -73.6948 H         1 UNK         0.2984 
     87 H87       -72.1639   29.0789  -77.1785 H         1 UNK         0.0554 
     88 H88       -69.7430   28.5366  -77.3241 H         1 UNK         0.0847 
     89 H89       -69.5024   29.0740  -75.6621 H         1 UNK         0.0847 
     90 H90       -69.9936   30.2210  -76.8960 H         1 UNK         0.0847 
     91 H91       -72.5380   27.0416  -76.5157 H         1 UNK         0.3141 
     92 H92       -70.8474   24.6756  -75.0568 H         1 UNK         0.0743 
     93 H93       -71.4896   25.1498  -72.6948 H         1 UNK         0.0784 
     94 H94       -73.1503   25.4326  -73.1959 H         1 UNK         0.0784 
     95 H95       -72.4366   23.8342  -73.3688 H         1 UNK         0.0784 
     96 H96       -73.7518   25.0462  -75.5272 H         1 UNK         0.3213 
     97 H97       -73.4242   23.7658  -78.8845 H         1 UNK         0.0855 
     98 H98       -74.8154   22.7854  -76.3375 H         1 UNK         0.0814 
     99 H99       -73.6511   21.8597  -77.2762 H         1 UNK         0.0814 
    100 H100      -75.1944   22.3003  -77.9886 H         1 UNK         0.0814 
    101 H101      -75.7151   24.7681  -77.5627 H         1 UNK         0.3105 
    102 H102      -75.5059   28.1019  -78.9172 H         1 UNK         0.0547 
    103 H103      -77.7135   27.3463  -79.7388 H         1 UNK         0.0837 
    104 H104      -76.4326   26.5439  -80.6338 H         1 UNK         0.0837 
    105 H105      -77.3097   25.6688  -79.3865 H         1 UNK         0.0837 
    106 H106      -77.4613   26.9262  -77.2251 H         1 UNK         0.3020 
    107 H107      -76.0129   28.0008  -74.1094 H         1 UNK         0.1245 
    108 H108      -78.6269   28.5993  -74.2063 H         1 UNK         0.0781 
    109 H109      -78.3179   28.9890  -75.8656 H         1 UNK         0.0781 
    110 H110      -79.1154   30.8533  -72.9595 H         1 UNK         0.0836 
    111 H111      -77.7178   31.7026  -72.3448 H         1 UNK         0.0836 
    112 H112      -78.2661   26.4193  -74.4635 H         1 UNK         0.3022 
    113 H113      -76.7329   23.2015  -74.7615 H         1 UNK         0.0747 
    114 H114      -78.3513   22.8420  -72.9011 H         1 UNK         0.0793 
    115 H115      -76.9343   23.7180  -72.3444 H         1 UNK         0.0793 
    116 H116      -78.4372   24.5799  -72.6171 H         1 UNK         0.0793 
    117 H117      -79.4352   24.2490  -74.9036 H         1 UNK         0.3047 
    118 H118      -79.5361   24.5432  -78.4479 H         1 UNK         0.0822 
    119 H119      -79.9235   22.1226  -78.1144 H         1 UNK         0.0807 
    120 H120      -81.4561   22.9782  -78.1716 H         1 UNK         0.0807 
    121 H121      -80.8072   22.4286  -76.6282 H         1 UNK         0.0807 
    122 H122      -81.4543   24.8498  -76.2906 H         1 UNK         0.2946 
    123 H123      -80.7378   28.2874  -75.6984 H         1 UNK         0.1144 
    124 H124      -82.0712   28.4359  -77.8092 H         1 UNK         0.0793 
    125 H125      -83.0846   28.6756  -76.3964 H         1 UNK         0.0793 
    126 H126      -83.1158   27.1345  -77.2554 H         1 UNK         0.0793 
    127 H127      -82.8987   26.6794  -74.8140 H         1 UNK         0.2896 
@<TRIPOS>BOND
     1    1    2 1    
     2    1   67 1    
     3    1   68 1    
     4    1   69 1    
     5    2    3 2    
     6    2    4 am   BACKBONE|DICT|INTERRES
     7    4    5 1    
     8    4   70 1    
     9    5    6 1    
    10    5   65 1    
    11    5   71 1    
    12    6    7 1    
    13    6   72 1    
    14    6   73 1    
    15    7    8 1    
    16    8    9 1    
    17    8   74 1    
    18    8   75 1    
    19    9   10 ar   
    20    9   14 ar   
    21   10   11 ar   
    22   10   76 1    
    23   11   12 ar   
    24   11   48 1    
    25   12   13 ar   
    26   12   77 1    
    27   13   14 ar   
    28   13   15 1    
    29   14   78 1    
    30   15   16 1    
    31   15   79 1    
    32   15   80 1    
    33   16   17 1    
    34   17   18 1    
    35   17   81 1    
    36   17   82 1    
    37   18   19 1    
    38   18   22 1    
    39   18   83 1    
    40   19   20 am   BACKBONE|DICT|INTERRES
    41   19   21 2    
    42   20   84 1    
    43   20   85 1    
    44   22   23 am   BACKBONE|DICT|INTERRES
    45   22   86 1    
    46   23   24 2    
    47   23   25 1    
    48   25   26 1    
    49   25   27 1    
    50   25   87 1    
    51   26   88 1    
    52   26   89 1    
    53   26   90 1    
    54   27   28 am   BACKBONE|DICT|INTERRES
    55   27   91 1    
    56   28   29 2    
    57   28   30 1    
    58   30   31 1    
    59   30   32 1    
    60   30   92 1    
    61   31   93 1    
    62   31   94 1    
    63   31   95 1    
    64   32   33 am   BACKBONE|DICT|INTERRES
    65   32   96 1    
    66   33   34 2    
    67   33   35 1    
    68   35   36 1    
    69   35   37 1    
    70   35   97 1    
    71   36   98 1    
    72   36   99 1    
    73   36  100 1    
    74   37   38 am   BACKBONE|DICT|INTERRES
    75   37  101 1    
    76   38   39 2    
    77   38   40 1    
    78   40   41 1    
    79   40   42 1    
    80   40  102 1    
    81   41  103 1    
    82   41  104 1    
    83   41  105 1    
    84   42   43 am   BACKBONE|DICT|INTERRES
    85   42  106 1    
    86   43   44 2    
    87   43   45 1    
    88   45   46 1    
    89   45   49 1    
    90   45  107 1    
    91   46   47 1    
    92   46  108 1    
    93   46  109 1    
    94   47   48 1    
    95   48  110 1    
    96   48  111 1    
    97   49   50 am   BACKBONE|DICT|INTERRES
    98   49  112 1    
    99   50   51 2    
   100   50   52 1    
   101   52   53 1    
   102   52   54 1    
   103   52  113 1    
   104   53  114 1    
   105   53  115 1    
   106   53  116 1    
   107   54   55 am   BACKBONE|DICT|INTERRES
   108   54  117 1    
   109   55   56 2    
   110   55   57 1    
   111   57   58 1    
   112   57   59 1    
   113   57  118 1    
   114   58  119 1    
   115   58  120 1    
   116   58  121 1    
   117   59   60 am   BACKBONE|DICT|INTERRES
   118   59  122 1    
   119   60   61 2    
   120   60   62 1    
   121   62   63 1    
   122   62   64 1    
   123   62  123 1    
   124   63  124 1    
   125   63  125 1    
   126   63  126 1    
   127   64   65 am   BACKBONE|DICT|INTERRES
   128   64  127 1    
   129   65   66 2    
@<TRIPOS>SUBSTRUCTURE
     1 UNK         1 GROUP             0       ****    0 ROOT    
