@<TRIPOS>MOLECULE
3R135
127   129    1
SMALL
USER_CHARGES


@<TRIPOS>ATOM
      1 CA        -83.2549   28.8255  -69.8107 C.3       0 UNK        -0.1998 
      2 C         -82.5629   28.2006  -71.0129 C.2       0 UNK         0.4909 
      3 O         -81.6622   27.3803  -70.8358 O.2       0 UNK        -0.5240 
      4 N         -82.9734   28.5960  -72.2266 N.am      1 UNK        -0.4739 
      5 CA        -82.4767   28.1073  -73.5222 C.3       1 UNK         0.0864 
      6 C6        -80.9928   28.4843  -73.8027 C.3       11 UNK        -0.0881 
      7 S7        -80.6895   30.2887  -73.7266 S.3       11 UNK        -0.2682 
      8 C8        -79.7669   30.4974  -72.1645 C.3       11 UNK         0.0289 
      9 C9        -78.3702   29.9011  -72.2493 C.ar      11 UNK        -0.0687 
     10 C10       -78.1309   28.6133  -71.7647 C.ar      11 UNK        -0.0823 
     11 C11       -76.8846   28.0094  -71.9420 C.ar      11 UNK        -0.0830 
     12 C12       -75.8483   28.7316  -72.5418 C.ar      11 UNK        -0.1021 
     13 C13       -76.0608   30.0401  -72.9868 C.ar      11 UNK        -0.0753 
     14 C14       -77.3269   30.6177  -72.8445 C.ar      11 UNK        -0.0933 
     15 C15       -74.9402   30.8088  -73.6723 C.3       11 UNK         0.0166 
     16 S16       -74.1463   32.0111  -72.5614 S.3       11 UNK        -0.2615 
     17 C17       -73.1973   30.9293  -71.4362 C.3       11 UNK        -0.0865 
     18 CA        -71.6662   31.0128  -71.6688 C.3       10 UNK         0.0862 
     19 C         -70.8911   30.2969  -70.5232 C.2       10 UNK         0.5551 
     20 N         -70.1311   29.2409  -70.7889 N.am      10 UNK        -0.7319 
     21 O         -70.9762   30.7152  -69.3712 O.2       10 UNK        -0.5018 
     22 N         -71.2871   30.5664  -73.0213 N.am      10 UNK        -0.4509 
     23 C         -70.1794   30.9466  -73.6673 C.2       10 UNK         0.4899 
     24 O         -69.3839   31.7733  -73.2197 O.2       10 UNK        -0.4839 
     25 CA        -69.8870   30.3172  -75.0441 C.3       9 UNK         0.0222 
     26 CB        -68.9131   29.1303  -74.9041 C.3       9 UNK        -0.1966 
     27 N         -71.0603   29.9466  -75.8527 N.am      9 UNK        -0.4218 
     28 C         -71.9759   28.9922  -75.6317 C.2       9 UNK         0.5020 
     29 O         -72.0173   28.3050  -74.6094 O.2       9 UNK        -0.5274 
     30 CA        -73.0613   28.7873  -76.7066 C.3       8 UNK         0.0270 
     31 CB        -73.0095   29.7918  -77.8812 C.3       8 UNK        -0.1976 
     32 N         -73.0777   27.4070  -77.1994 N.am      8 UNK        -0.4313 
     33 C         -72.0869   26.7470  -77.8223 C.2       8 UNK         0.5041 
     34 O         -70.9946   27.2477  -78.0949 O.2       8 UNK        -0.5577 
     35 CA        -72.3393   25.2752  -78.2153 C.3       7 UNK         0.0284 
     36 CB        -71.5907   24.3317  -77.2592 C.3       7 UNK        -0.1958 
     37 N         -73.7556   24.8997  -78.2389 N.am      7 UNK        -0.4454 
     38 C         -74.6570   25.3389  -79.1284 C.2       7 UNK         0.5089 
     39 O         -74.3660   26.0137  -80.1164 O.2       7 UNK        -0.5125 
     40 CA        -76.1387   25.0005  -78.8588 C.3       6 UNK         0.0408 
     41 CB        -76.6100   23.8778  -79.7958 C.3       6 UNK        -0.1791 
     42 N         -76.4620   24.6396  -77.4691 N.am      6 UNK        -0.4762 
     43 C         -76.2436   25.4060  -76.3865 C.2       6 UNK         0.5007 
     44 O         -75.6922   26.5052  -76.4502 O.2       6 UNK        -0.5032 
     45 CA        -76.6712   24.8708  -75.0029 C.3       5 UNK         0.0783 
     46 C46       -77.4978   25.9271  -74.2338 C.3       11 UNK        -0.0857 
     47 S47       -77.8159   25.4468  -72.4984 S.3       11 UNK        -0.2512 
     48 C48       -76.6878   26.5461  -71.5697 C.3       11 UNK         0.0225 
     49 N         -77.3818   23.5936  -75.0952 N.am      5 UNK        -0.4615 
     50 C         -76.8014   22.3870  -75.0725 C.2       4 UNK         0.5053 
     51 O         -75.5843   22.2209  -74.9954 O.2       4 UNK        -0.5105 
     52 CA        -77.7236   21.1549  -75.1567 C.3       4 UNK         0.0263 
     53 CB        -77.9032   20.5292  -73.7640 C.3       4 UNK        -0.1981 
     54 N         -79.0444   21.4473  -75.7209 N.am      4 UNK        -0.4224 
     55 C         -79.2736   21.7993  -76.9941 C.2       3 UNK         0.4895 
     56 O         -78.3961   21.8495  -77.8553 O.2       3 UNK        -0.5091 
     57 CA        -80.7138   22.2071  -77.3563 C.3       3 UNK         0.0250 
     58 CB        -81.4878   21.0035  -77.9173 C.3       3 UNK        -0.1996 
     59 N         -81.4653   22.7942  -76.2379 N.am      3 UNK        -0.4254 
     60 C         -81.1393   23.9375  -75.6184 C.2       2 UNK         0.5004 
     61 O         -80.1517   24.6159  -75.9091 O.2       2 UNK        -0.5226 
     62 CA        -82.0294   24.3637  -74.4470 C.3       2 UNK         0.0269 
     63 CB        -81.6465   23.5958  -73.1680 C.3       2 UNK        -0.1926 
     64 N         -81.8712   25.7995  -74.2188 N.am      2 UNK        -0.4687 
     65 C         -82.8072   26.6032  -73.6982 C.2       1 UNK         0.5165 
     66 O         -83.9263   26.1987  -73.3701 O.2       1 UNK        -0.5079 
     67 H67       -82.5269   29.3442  -69.1875 H         1 UNK         0.0900 
     68 H68       -83.7302   28.0519  -69.2082 H         1 UNK         0.0900 
     69 H69       -84.0199   29.5431  -70.1067 H         1 UNK         0.0900 
     70 H70       -83.7332   29.2589  -72.2901 H         1 UNK         0.2959 
     71 H71       -83.0807   28.6127  -74.2776 H         1 UNK         0.1079 
     72 H72       -80.3301   27.9547  -73.1213 H         1 UNK         0.0837 
     73 H73       -80.7042   28.1680  -74.8065 H         1 UNK         0.0837 
     74 H74       -80.3268   30.0517  -71.3421 H         1 UNK         0.0685 
     75 H75       -79.6943   31.5624  -71.9394 H         1 UNK         0.0685 
     76 H76       -78.9347   28.0502  -71.3088 H         1 UNK         0.1434 
     77 H77       -74.8851   28.2635  -72.6941 H         1 UNK         0.1329 
     78 H78       -77.5061   31.6167  -73.2179 H         1 UNK         0.1335 
     79 H79       -74.1857   30.1244  -74.0574 H         1 UNK         0.0680 
     80 H80       -75.3403   31.3393  -74.5376 H         1 UNK         0.0680 
     81 H81       -73.5358   29.8969  -71.5197 H         1 UNK         0.1032 
     82 H82       -73.4456   31.2392  -70.4191 H         1 UNK         0.1032 
     83 H83       -71.3923   32.0665  -71.5852 H         1 UNK         0.0461 
     84 H84       -70.0594   28.8892  -71.7299 H         1 UNK         0.3453 
     85 H85       -69.6310   28.7896  -70.0393 H         1 UNK         0.3453 
     86 H86       -71.8368   29.8199  -73.4342 H         1 UNK         0.2984 
     87 H87       -69.3749   31.0868  -75.6238 H         1 UNK         0.0554 
     88 H88       -68.6287   28.7345  -75.8792 H         1 UNK         0.0847 
     89 H89       -69.3443   28.3129  -74.3256 H         1 UNK         0.0847 
     90 H90       -67.9959   29.4355  -74.3984 H         1 UNK         0.0847 
     91 H91       -71.1567   30.4667  -76.7139 H         1 UNK         0.3141 
     92 H92       -74.0168   28.9308  -76.2002 H         1 UNK         0.0743 
     93 H93       -72.0828   29.7177  -78.4514 H         1 UNK         0.0784 
     94 H94       -73.8321   29.6168  -78.5750 H         1 UNK         0.0784 
     95 H95       -73.1080   30.8197  -77.5294 H         1 UNK         0.0784 
     96 H96       -73.9395   26.9044  -76.9986 H         1 UNK         0.3213 
     97 H97       -71.9365   25.1355  -79.2209 H         1 UNK         0.0855 
     98 H98       -71.9566   24.4207  -76.2354 H         1 UNK         0.0814 
     99 H99       -70.5237   24.5588  -77.2436 H         1 UNK         0.0814 
    100 H100      -71.6933   23.2905  -77.5655 H         1 UNK         0.0814 
    101 H101      -74.0918   24.3371  -77.4708 H         1 UNK         0.3105 
    102 H102      -76.7122   25.8989  -79.0955 H         1 UNK         0.0547 
    103 H103      -76.3815   24.1108  -80.8368 H         1 UNK         0.0837 
    104 H104      -76.1296   22.9273  -79.5603 H         1 UNK         0.0837 
    105 H105      -77.6885   23.7339  -79.7301 H         1 UNK         0.0837 
    106 H106      -76.9266   23.7506  -77.3345 H         1 UNK         0.3020 
    107 H107      -75.7428   24.7186  -74.4475 H         1 UNK         0.1245 
    108 H108      -76.9950   26.8926  -74.2614 H         1 UNK         0.0781 
    109 H109      -78.4579   26.0976  -74.7201 H         1 UNK         0.0781 
    110 H110      -76.8642   26.4189  -70.5008 H         1 UNK         0.0836 
    111 H111      -75.6593   26.2317  -71.7535 H         1 UNK         0.0836 
    112 H112      -78.3866   23.6644  -75.2049 H         1 UNK         0.3022 
    113 H113      -77.2335   20.4236  -75.8030 H         1 UNK         0.0747 
    114 H114      -78.4929   19.6135  -73.8121 H         1 UNK         0.0793 
    115 H115      -76.9387   20.2680  -73.3261 H         1 UNK         0.0793 
    116 H116      -78.3986   21.2143  -73.0744 H         1 UNK         0.0793 
    117 H117      -79.8270   21.4249  -75.0840 H         1 UNK         0.3047 
    118 H118      -80.6448   22.9645  -78.1403 H         1 UNK         0.0822 
    119 H119      -82.4772   21.2963  -78.2694 H         1 UNK         0.0807 
    120 H120      -81.6143   20.2190  -77.1702 H         1 UNK         0.0807 
    121 H121      -80.9622   20.5632  -78.7661 H         1 UNK         0.0807 
    122 H122      -82.2863   22.2900  -75.9332 H         1 UNK         0.2946 
    123 H123      -83.0673   24.1471  -74.7113 H         1 UNK         0.1144 
    124 H124      -82.2778   23.8861  -72.3278 H         1 UNK         0.0793 
    125 H125      -80.6098   23.7822  -72.8833 H         1 UNK         0.0793 
    126 H126      -81.7631   22.5197  -73.3006 H         1 UNK         0.0793 
    127 H127      -80.9846   26.1756  -74.5286 H         1 UNK         0.2896 
@<TRIPOS>BOND
     1    1    2 1    
     2    1   67 1    
     3    1   68 1    
     4    1   69 1    
     5    2    3 2    
     6    2    4 am   BACKBONE|DICT|INTERRES
     7    4    5 1    
     8    4   70 1    
     9    5    6 1    
    10    5   65 1    
    11    5   71 1    
    12    6    7 1    
    13    6   72 1    
    14    6   73 1    
    15    7    8 1    
    16    8    9 1    
    17    8   74 1    
    18    8   75 1    
    19    9   10 ar   
    20    9   14 ar   
    21   10   11 ar   
    22   10   76 1    
    23   11   12 ar   
    24   11   48 1    
    25   12   13 ar   
    26   12   77 1    
    27   13   14 ar   
    28   13   15 1    
    29   14   78 1    
    30   15   16 1    
    31   15   79 1    
    32   15   80 1    
    33   16   17 1    
    34   17   18 1    
    35   17   81 1    
    36   17   82 1    
    37   18   19 1    
    38   18   22 1    
    39   18   83 1    
    40   19   20 am   BACKBONE|DICT|INTERRES
    41   19   21 2    
    42   20   84 1    
    43   20   85 1    
    44   22   23 am   BACKBONE|DICT|INTERRES
    45   22   86 1    
    46   23   24 2    
    47   23   25 1    
    48   25   26 1    
    49   25   27 1    
    50   25   87 1    
    51   26   88 1    
    52   26   89 1    
    53   26   90 1    
    54   27   28 am   BACKBONE|DICT|INTERRES
    55   27   91 1    
    56   28   29 2    
    57   28   30 1    
    58   30   31 1    
    59   30   32 1    
    60   30   92 1    
    61   31   93 1    
    62   31   94 1    
    63   31   95 1    
    64   32   33 am   BACKBONE|DICT|INTERRES
    65   32   96 1    
    66   33   34 2    
    67   33   35 1    
    68   35   36 1    
    69   35   37 1    
    70   35   97 1    
    71   36   98 1    
    72   36   99 1    
    73   36  100 1    
    74   37   38 am   BACKBONE|DICT|INTERRES
    75   37  101 1    
    76   38   39 2    
    77   38   40 1    
    78   40   41 1    
    79   40   42 1    
    80   40  102 1    
    81   41  103 1    
    82   41  104 1    
    83   41  105 1    
    84   42   43 am   BACKBONE|DICT|INTERRES
    85   42  106 1    
    86   43   44 2    
    87   43   45 1    
    88   45   46 1    
    89   45   49 1    
    90   45  107 1    
    91   46   47 1    
    92   46  108 1    
    93   46  109 1    
    94   47   48 1    
    95   48  110 1    
    96   48  111 1    
    97   49   50 am   BACKBONE|DICT|INTERRES
    98   49  112 1    
    99   50   51 2    
   100   50   52 1    
   101   52   53 1    
   102   52   54 1    
   103   52  113 1    
   104   53  114 1    
   105   53  115 1    
   106   53  116 1    
   107   54   55 am   BACKBONE|DICT|INTERRES
   108   54  117 1    
   109   55   56 2    
   110   55   57 1    
   111   57   58 1    
   112   57   59 1    
   113   57  118 1    
   114   58  119 1    
   115   58  120 1    
   116   58  121 1    
   117   59   60 am   BACKBONE|DICT|INTERRES
   118   59  122 1    
   119   60   61 2    
   120   60   62 1    
   121   62   63 1    
   122   62   64 1    
   123   62  123 1    
   124   63  124 1    
   125   63  125 1    
   126   63  126 1    
   127   64   65 am   BACKBONE|DICT|INTERRES
   128   64  127 1    
   129   65   66 2    
@<TRIPOS>SUBSTRUCTURE
     1 UNK         1 GROUP             0       ****    0 ROOT    
