@<TRIPOS>MOLECULE
3R135
127   129    1
SMALL
USER_CHARGES


@<TRIPOS>ATOM
      1 CA        -78.5573   31.1847  -79.7306 C.3       0 UNK        -0.1998 
      2 C         -78.3989   30.0804  -78.6967 C.2       0 UNK         0.4909 
      3 O         -78.0138   28.9660  -79.0480 O.2       0 UNK        -0.5240 
      4 N         -78.6812   30.3857  -77.4243 N.am      1 UNK        -0.4739 
      5 CA        -78.6225   29.4407  -76.3034 C.3       1 UNK         0.0864 
      6 C6        -78.5823   30.1917  -74.9414 C.3       11 UNK        -0.0881 
      7 S7        -77.3135   29.5120  -73.8271 S.3       11 UNK        -0.2682 
      8 C8        -78.3117   28.6379  -72.5879 C.3       11 UNK         0.0289 
      9 C9        -77.3943   27.8224  -71.6963 C.ar      11 UNK        -0.0687 
     10 C10       -77.1449   26.4781  -71.9847 C.ar      11 UNK        -0.0823 
     11 C11       -76.2393   25.7444  -71.2139 C.ar      11 UNK        -0.0830 
     12 C12       -75.5839   26.3677  -70.1476 C.ar      11 UNK        -0.1021 
     13 C13       -75.8284   27.7123  -69.8488 C.ar      11 UNK        -0.0753 
     14 C14       -76.7514   28.4285  -70.6144 C.ar      11 UNK        -0.0933 
     15 C15       -75.0771   28.3874  -68.7117 C.3       11 UNK         0.0166 
     16 S16       -73.3588   28.7465  -69.1933 S.3       11 UNK        -0.2615 
     17 C17       -73.4093   30.5188  -69.6454 C.3       11 UNK        -0.0865 
     18 CA        -74.0900   30.8711  -71.0046 C.3       10 UNK         0.0862 
     19 C         -73.9672   32.3898  -71.3353 C.2       10 UNK         0.5551 
     20 N         -73.6570   32.7920  -72.5627 N.am      10 UNK        -0.7319 
     21 O         -74.1894   33.2267  -70.4636 O.2       10 UNK        -0.5018 
     22 N         -73.7474   29.9726  -72.1190 N.am      10 UNK        -0.4509 
     23 C         -72.5226   29.7154  -72.5932 C.2       10 UNK         0.4899 
     24 O         -71.4778   30.1575  -72.1147 O.2       10 UNK        -0.4839 
     25 CA        -72.4657   28.8379  -73.8532 C.3       9 UNK         0.0222 
     26 CB        -72.6250   27.3539  -73.4837 C.3       9 UNK        -0.1966 
     27 N         -73.4738   29.1995  -74.8547 N.am      9 UNK        -0.4218 
     28 C         -73.6027   30.3849  -75.4647 C.2       9 UNK         0.5020 
     29 O         -72.8755   31.3513  -75.2270 O.2       9 UNK        -0.5274 
     30 CA        -74.7355   30.5121  -76.5094 C.3       8 UNK         0.0270 
     31 CB        -74.7324   31.8735  -77.2295 C.3       8 UNK        -0.1976 
     32 N         -74.7485   29.4444  -77.5179 N.am      8 UNK        -0.4313 
     33 C         -75.1001   28.1716  -77.3032 C.2       8 UNK         0.5041 
     34 O         -75.3733   27.7136  -76.1873 O.2       8 UNK        -0.5577 
     35 CA        -75.1550   27.2481  -78.5225 C.3       7 UNK         0.0284 
     36 CB        -73.7484   26.7641  -78.9188 C.3       7 UNK        -0.1958 
     37 N         -75.9801   26.1195  -78.1245 N.am      7 UNK        -0.4454 
     38 C         -76.5976   25.2284  -78.9007 C.2       7 UNK         0.5089 
     39 O         -76.5674   25.2514  -80.1324 O.2       7 UNK        -0.5125 
     40 CA        -77.3748   24.1202  -78.1555 C.3       6 UNK         0.0408 
     41 CB        -77.5181   22.8314  -78.9903 C.3       6 UNK        -0.1791 
     42 N         -76.8342   23.8095  -76.8218 N.am      6 UNK        -0.4762 
     43 C         -75.5856   23.4035  -76.5283 C.2       6 UNK         0.5007 
     44 O         -74.6934   23.2448  -77.3621 O.2       6 UNK        -0.5032 
     45 CA        -75.2917   23.1013  -75.0485 C.3       5 UNK         0.0783 
     46 C46       -75.1051   24.4051  -74.2337 C.3       11 UNK        -0.0857 
     47 S47       -74.4786   24.0665  -72.5532 S.3       11 UNK        -0.2512 
     48 C48       -75.9669   24.2804  -71.5260 C.3       11 UNK         0.0225 
     49 N         -76.3293   22.2316  -74.4915 N.am      5 UNK        -0.4615 
     50 C         -76.4876   20.9386  -74.8068 C.2       4 UNK         0.5053 
     51 O         -75.7175   20.3130  -75.5360 O.2       4 UNK        -0.5105 
     52 CA        -77.7027   20.2090  -74.2056 C.3       4 UNK         0.0263 
     53 CB        -77.2633   19.3093  -73.0386 C.3       4 UNK        -0.1981 
     54 N         -78.7580   21.1128  -73.7396 N.am      4 UNK        -0.4224 
     55 C         -79.5438   21.8556  -74.5314 C.2       3 UNK         0.4895 
     56 O         -79.5016   21.8203  -75.7627 O.2       3 UNK        -0.5091 
     57 CA        -80.5591   22.7764  -73.8265 C.3       3 UNK         0.0250 
     58 CB        -80.1775   23.1320  -72.3696 C.3       3 UNK        -0.1996 
     59 N         -80.8480   24.0041  -74.5752 N.am      3 UNK        -0.4254 
     60 C         -79.9871   24.9682  -74.9333 C.2       2 UNK         0.5004 
     61 O         -78.7606   24.8992  -74.7963 O.2       2 UNK        -0.5226 
     62 CA        -80.6284   26.2453  -75.5005 C.3       2 UNK         0.0269 
     63 CB        -81.7326   26.7774  -74.5532 C.3       2 UNK        -0.1926 
     64 N         -79.6034   27.2712  -75.6982 N.am      2 UNK        -0.4687 
     65 C         -79.7812   28.4223  -76.3578 C.2       1 UNK         0.5165 
     66 O         -80.8265   28.7135  -76.9466 O.2       1 UNK        -0.5079 
     67 H67       -77.6070   31.3681  -80.2312 H         1 UNK         0.0900 
     68 H68       -78.8899   32.1203  -79.2813 H         1 UNK         0.0900 
     69 H69       -79.2885   30.8908  -80.4832 H         1 UNK         0.0900 
     70 H70       -79.0345   31.3057  -77.2048 H         1 UNK         0.2959 
     71 H71       -77.7023   28.8710  -76.4281 H         1 UNK         0.1079 
     72 H72       -78.3153   31.2397  -75.0875 H         1 UNK         0.0837 
     73 H73       -79.5547   30.2144  -74.4442 H         1 UNK         0.0837 
     74 H74       -78.8783   29.3584  -71.9961 H         1 UNK         0.0685 
     75 H75       -79.0393   27.9904  -73.0773 H         1 UNK         0.0685 
     76 H76       -77.6437   26.0102  -72.8203 H         1 UNK         0.1434 
     77 H77       -74.8681   25.8108  -69.5582 H         1 UNK         0.1329 
     78 H78       -76.9507   29.4667  -70.3908 H         1 UNK         0.1335 
     79 H79       -75.5812   29.3011  -68.3931 H         1 UNK         0.0680 
     80 H80       -75.0679   27.7250  -67.8449 H         1 UNK         0.0680 
     81 H81       -72.3761   30.8704  -69.6535 H         1 UNK         0.1032 
     82 H82       -73.8924   31.0639  -68.8325 H         1 UNK         0.1032 
     83 H83       -75.1589   30.7267  -70.8654 H         1 UNK         0.0461 
     84 H84       -73.5954   33.7794  -72.7526 H         1 UNK         0.3453 
     85 H85       -73.4399   32.1267  -73.2935 H         1 UNK         0.3453 
     86 H86       -74.5357   29.5605  -72.5977 H         1 UNK         0.2984 
     87 H87       -71.4843   28.9747  -74.3115 H         1 UNK         0.0554 
     88 H88       -72.4871   26.7108  -74.3528 H         1 UNK         0.0847 
     89 H89       -73.6108   27.1443  -73.0644 H         1 UNK         0.0847 
     90 H90       -71.8867   27.0540  -72.7388 H         1 UNK         0.0847 
     91 H91       -74.1409   28.4783  -75.1311 H         1 UNK         0.3141 
     92 H92       -75.6716   30.4522  -75.9553 H         1 UNK         0.0743 
     93 H93       -73.8231   32.0186  -77.8141 H         1 UNK         0.0784 
     94 H94       -75.5856   31.9694  -77.9016 H         1 UNK         0.0784 
     95 H95       -74.7960   32.6951  -76.5146 H         1 UNK         0.0784 
     96 H96       -74.4990   29.7198  -78.4570 H         1 UNK         0.3213 
     97 H97       -75.6287   27.7698  -79.3563 H         1 UNK         0.0855 
     98 H98       -73.1086   27.6005  -79.2023 H         1 UNK         0.0814 
     99 H99       -73.7875   26.0846  -79.7702 H         1 UNK         0.0814 
    100 H100      -73.2589   26.2393  -78.0970 H         1 UNK         0.0814 
    101 H101      -76.0923   26.0575  -77.1187 H         1 UNK         0.3105 
    102 H102      -78.3769   24.5171  -77.9866 H         1 UNK         0.0547 
    103 H103      -78.0427   23.0257  -79.9264 H         1 UNK         0.0837 
    104 H104      -76.5473   22.4043  -79.2433 H         1 UNK         0.0837 
    105 H105      -78.0884   22.0743  -78.4516 H         1 UNK         0.0837 
    106 H106      -77.4876   23.9379  -76.0536 H         1 UNK         0.3020 
    107 H107      -74.3471   22.5521  -75.0220 H         1 UNK         0.1245 
    108 H108      -76.0328   24.9760  -74.1856 H         1 UNK         0.0781 
    109 H109      -74.3801   25.0581  -74.7235 H         1 UNK         0.0781 
    110 H110      -75.8275   23.7319  -70.5932 H         1 UNK         0.0836 
    111 H111      -76.8260   23.8233  -72.0167 H         1 UNK         0.0836 
    112 H112      -77.0195   22.6715  -73.9035 H         1 UNK         0.3022 
    113 H113      -78.1217   19.5749  -74.9900 H         1 UNK         0.0747 
    114 H114      -78.0989   18.7284  -72.6474 H         1 UNK         0.0793 
    115 H115      -76.5005   18.5984  -73.3597 H         1 UNK         0.0793 
    116 H116      -76.8414   19.8897  -72.2170 H         1 UNK         0.0793 
    117 H117      -78.8779   21.1883  -72.7398 H         1 UNK         0.3047 
    118 H118      -81.4943   22.2153  -73.7950 H         1 UNK         0.0822 
    119 H119      -80.9147   23.8020  -71.9266 H         1 UNK         0.0807 
    120 H120      -79.2102   23.6312  -72.3121 H         1 UNK         0.0807 
    121 H121      -80.1404   22.2488  -71.7312 H         1 UNK         0.0807 
    122 H122      -81.8248   24.1485  -74.7883 H         1 UNK         0.2946 
    123 H123      -81.0639   25.9964  -76.4708 H         1 UNK         0.1144 
    124 H124      -82.5493   26.0640  -74.4411 H         1 UNK         0.0793 
    125 H125      -82.1841   27.6969  -74.9242 H         1 UNK         0.0793 
    126 H126      -81.3398   26.9821  -73.5565 H         1 UNK         0.0793 
    127 H127      -78.7099   27.0561  -75.2717 H         1 UNK         0.2896 
@<TRIPOS>BOND
     1    1    2 1    
     2    1   67 1    
     3    1   68 1    
     4    1   69 1    
     5    2    3 2    
     6    2    4 am   BACKBONE|DICT|INTERRES
     7    4    5 1    
     8    4   70 1    
     9    5    6 1    
    10    5   65 1    
    11    5   71 1    
    12    6    7 1    
    13    6   72 1    
    14    6   73 1    
    15    7    8 1    
    16    8    9 1    
    17    8   74 1    
    18    8   75 1    
    19    9   10 ar   
    20    9   14 ar   
    21   10   11 ar   
    22   10   76 1    
    23   11   12 ar   
    24   11   48 1    
    25   12   13 ar   
    26   12   77 1    
    27   13   14 ar   
    28   13   15 1    
    29   14   78 1    
    30   15   16 1    
    31   15   79 1    
    32   15   80 1    
    33   16   17 1    
    34   17   18 1    
    35   17   81 1    
    36   17   82 1    
    37   18   19 1    
    38   18   22 1    
    39   18   83 1    
    40   19   20 am   BACKBONE|DICT|INTERRES
    41   19   21 2    
    42   20   84 1    
    43   20   85 1    
    44   22   23 am   BACKBONE|DICT|INTERRES
    45   22   86 1    
    46   23   24 2    
    47   23   25 1    
    48   25   26 1    
    49   25   27 1    
    50   25   87 1    
    51   26   88 1    
    52   26   89 1    
    53   26   90 1    
    54   27   28 am   BACKBONE|DICT|INTERRES
    55   27   91 1    
    56   28   29 2    
    57   28   30 1    
    58   30   31 1    
    59   30   32 1    
    60   30   92 1    
    61   31   93 1    
    62   31   94 1    
    63   31   95 1    
    64   32   33 am   BACKBONE|DICT|INTERRES
    65   32   96 1    
    66   33   34 2    
    67   33   35 1    
    68   35   36 1    
    69   35   37 1    
    70   35   97 1    
    71   36   98 1    
    72   36   99 1    
    73   36  100 1    
    74   37   38 am   BACKBONE|DICT|INTERRES
    75   37  101 1    
    76   38   39 2    
    77   38   40 1    
    78   40   41 1    
    79   40   42 1    
    80   40  102 1    
    81   41  103 1    
    82   41  104 1    
    83   41  105 1    
    84   42   43 am   BACKBONE|DICT|INTERRES
    85   42  106 1    
    86   43   44 2    
    87   43   45 1    
    88   45   46 1    
    89   45   49 1    
    90   45  107 1    
    91   46   47 1    
    92   46  108 1    
    93   46  109 1    
    94   47   48 1    
    95   48  110 1    
    96   48  111 1    
    97   49   50 am   BACKBONE|DICT|INTERRES
    98   49  112 1    
    99   50   51 2    
   100   50   52 1    
   101   52   53 1    
   102   52   54 1    
   103   52  113 1    
   104   53  114 1    
   105   53  115 1    
   106   53  116 1    
   107   54   55 am   BACKBONE|DICT|INTERRES
   108   54  117 1    
   109   55   56 2    
   110   55   57 1    
   111   57   58 1    
   112   57   59 1    
   113   57  118 1    
   114   58  119 1    
   115   58  120 1    
   116   58  121 1    
   117   59   60 am   BACKBONE|DICT|INTERRES
   118   59  122 1    
   119   60   61 2    
   120   60   62 1    
   121   62   63 1    
   122   62   64 1    
   123   62  123 1    
   124   63  124 1    
   125   63  125 1    
   126   63  126 1    
   127   64   65 am   BACKBONE|DICT|INTERRES
   128   64  127 1    
   129   65   66 2    
@<TRIPOS>SUBSTRUCTURE
     1 UNK         1 GROUP             0       ****    0 ROOT    
