@<TRIPOS>MOLECULE
3R135
127   129    1
SMALL
USER_CHARGES


@<TRIPOS>ATOM
      1 CA        -78.2402   25.6409  -71.4081 C.3       0 UNK        -0.1998 
      2 C         -79.7090   25.8450  -71.7387 C.2       0 UNK         0.4909 
      3 O         -80.4276   24.8701  -71.9681 O.2       0 UNK        -0.5240 
      4 N         -80.1592   27.1059  -71.7777 N.am      1 UNK        -0.4739 
      5 CA        -81.5324   27.5337  -72.0834 C.3       1 UNK         0.0864 
      6 C6        -81.8279   28.9893  -71.6181 C.3       11 UNK        -0.0881 
      7 S7        -81.2786   29.3678  -69.9159 S.3       11 UNK        -0.2682 
      8 C8        -79.9543   30.5887  -70.2158 C.3       11 UNK         0.0289 
      9 C9        -78.7140   29.9427  -70.8177 C.ar      11 UNK        -0.0687 
     10 C10       -78.5595   29.8619  -72.2051 C.ar      11 UNK        -0.0823 
     11 C11       -77.4586   29.2049  -72.7580 C.ar      11 UNK        -0.0830 
     12 C12       -76.4835   28.6634  -71.9173 C.ar      11 UNK        -0.1021 
     13 C13       -76.5945   28.7932  -70.5304 C.ar      11 UNK        -0.0753 
     14 C14       -77.7201   29.4191  -69.9856 C.ar      11 UNK        -0.0933 
     15 C15       -75.5027   28.2567  -69.6182 C.3       11 UNK         0.0166 
     16 S16       -74.1806   29.4876  -69.3734 S.3       11 UNK        -0.2615 
     17 C17       -73.1528   29.2548  -70.8656 C.3       11 UNK        -0.0865 
     18 CA        -73.4214   30.3021  -71.9801 C.3       10 UNK         0.0862 
     19 C         -72.7327   31.6627  -71.6845 C.2       10 UNK         0.5551 
     20 N         -73.4463   32.6043  -71.0829 N.am      10 UNK        -0.7319 
     21 O         -71.5514   31.8574  -71.9658 O.2       10 UNK        -0.5018 
     22 N         -73.0256   29.7513  -73.2807 N.am      10 UNK        -0.4509 
     23 C         -73.3336   30.2446  -74.4833 C.2       10 UNK         0.4899 
     24 O         -74.0882   31.2016  -74.6556 O.2       10 UNK        -0.4839 
     25 CA        -72.7128   29.5469  -75.7130 C.3       9 UNK         0.0222 
     26 CB        -71.3200   30.1266  -76.0263 C.3       9 UNK        -0.1966 
     27 N         -72.6804   28.0736  -75.6584 N.am      9 UNK        -0.4218 
     28 C         -72.0099   27.2779  -74.8083 C.2       9 UNK         0.5020 
     29 O         -71.2695   27.6948  -73.9162 O.2       9 UNK        -0.5274 
     30 CA        -72.2311   25.7621  -74.9224 C.3       8 UNK         0.0270 
     31 CB        -73.3875   25.3248  -74.0065 C.3       8 UNK        -0.1976 
     32 N         -72.4813   25.2857  -76.2837 N.am      8 UNK        -0.4313 
     33 C         -71.5513   25.2061  -77.2462 C.2       8 UNK         0.5041 
     34 O         -70.3988   25.6216  -77.1217 O.2       8 UNK        -0.5577 
     35 CA        -71.9652   24.5253  -78.5595 C.3       7 UNK         0.0284 
     36 CB        -71.9853   22.9967  -78.3880 C.3       7 UNK        -0.1958 
     37 N         -73.2844   24.9782  -78.9985 N.am      7 UNK        -0.4454 
     38 C         -73.5029   25.8509  -79.9916 C.2       7 UNK         0.5089 
     39 O         -72.6142   26.3219  -80.7021 O.2       7 UNK        -0.5125 
     40 CA        -74.9631   26.2839  -80.2372 C.3       6 UNK         0.0408 
     41 CB        -75.5892   25.4398  -81.3586 C.3       6 UNK        -0.1791 
     42 N         -75.8140   26.2097  -79.0446 N.am      6 UNK        -0.4762 
     43 C         -75.6203   26.9220  -77.9251 C.2       6 UNK         0.5007 
     44 O         -74.7265   27.7577  -77.7929 O.2       6 UNK        -0.5032 
     45 CA        -76.5206   26.6095  -76.7154 C.3       5 UNK         0.0783 
     46 C46       -77.6721   27.6331  -76.6026 C.3       11 UNK        -0.0857 
     47 S47       -78.3004   27.6846  -74.8975 S.3       11 UNK        -0.2512 
     48 C48       -77.3238   29.0834  -74.2642 C.3       11 UNK         0.0225 
     49 N         -77.0050   25.2214  -76.6566 N.am      5 UNK        -0.4615 
     50 C         -76.2200   24.1360  -76.6023 C.2       4 UNK         0.5053 
     51 O         -74.9936   24.1914  -76.7058 O.2       4 UNK        -0.5105 
     52 CA        -76.9015   22.7753  -76.3976 C.3       4 UNK         0.0263 
     53 CB        -75.9509   21.7407  -75.7568 C.3       4 UNK        -0.1981 
     54 N         -78.1273   22.8987  -75.6024 N.am      4 UNK        -0.4224 
     55 C         -79.1354   22.0173  -75.6304 C.2       3 UNK         0.4895 
     56 O         -79.1682   21.0330  -76.3704 O.2       3 UNK        -0.5091 
     57 CA        -80.3001   22.2608  -74.6573 C.3       3 UNK         0.0250 
     58 CB        -79.9168   21.8156  -73.2359 C.3       3 UNK        -0.1996 
     59 N         -80.7780   23.6469  -74.6258 N.am      3 UNK        -0.4254 
     60 C         -81.4141   24.2518  -75.6447 C.2       2 UNK         0.5004 
     61 O         -81.5555   23.7308  -76.7517 O.2       2 UNK        -0.5226 
     62 CA        -82.0298   25.6447  -75.4058 C.3       2 UNK         0.0269 
     63 CB        -83.5081   25.6938  -75.8414 C.3       2 UNK        -0.1926 
     64 N         -81.9130   26.0734  -74.0122 N.am      2 UNK        -0.4687 
     65 C         -81.8444   27.3377  -73.5868 C.2       1 UNK         0.5165 
     66 O         -81.9772   28.3110  -74.3318 O.2       1 UNK        -0.5079 
     67 H67       -77.9444   26.2623  -70.5639 H         1 UNK         0.0900 
     68 H68       -77.6196   25.8973  -72.2663 H         1 UNK         0.0900 
     69 H69       -78.0462   24.6017  -71.1440 H         1 UNK         0.0900 
     70 H70       -79.5102   27.8621  -71.6009 H         1 UNK         0.2959 
     71 H71       -82.2081   26.8781  -71.5294 H         1 UNK         0.1079 
     72 H72       -81.3911   29.7203  -72.2975 H         1 UNK         0.0837 
     73 H73       -82.9032   29.1709  -71.6626 H         1 UNK         0.0837 
     74 H74       -80.3249   31.3851  -70.8632 H         1 UNK         0.0685 
     75 H75       -79.6975   31.0656  -69.2687 H         1 UNK         0.0685 
     76 H76       -79.3071   30.2841  -72.8620 H         1 UNK         0.1434 
     77 H77       -75.6259   28.1609  -72.3430 H         1 UNK         0.1329 
     78 H78       -77.8230   29.4996  -68.9119 H         1 UNK         0.1335 
     79 H79       -75.9262   28.0049  -68.6447 H         1 UNK         0.0680 
     80 H80       -75.0920   27.3271  -70.0151 H         1 UNK         0.0680 
     81 H81       -73.3309   28.2472  -71.2439 H         1 UNK         0.1032 
     82 H82       -72.1011   29.2629  -70.5721 H         1 UNK         0.1032 
     83 H83       -74.4952   30.4835  -72.0386 H         1 UNK         0.0461 
     84 H84       -73.0147   33.4898  -70.8700 H         1 UNK         0.3453 
     85 H85       -74.4061   32.4367  -70.8236 H         1 UNK         0.3453 
     86 H86       -72.3403   28.9992  -73.2655 H         1 UNK         0.2984 
     87 H87       -73.3583   29.7881  -76.5589 H         1 UNK         0.0554 
     88 H88       -70.9084   29.6968  -76.9395 H         1 UNK         0.0847 
     89 H89       -70.6095   29.9439  -75.2196 H         1 UNK         0.0847 
     90 H90       -71.3724   31.2066  -76.1707 H         1 UNK         0.0847 
     91 H91       -73.2692   27.6287  -76.3549 H         1 UNK         0.3141 
     92 H92       -71.3208   25.2755  -74.5651 H         1 UNK         0.0743 
     93 H93       -74.3343   25.7767  -74.3012 H         1 UNK         0.0784 
     94 H94       -73.5165   24.2422  -74.0199 H         1 UNK         0.0784 
     95 H95       -73.1975   25.6146  -72.9720 H         1 UNK         0.0784 
     96 H96       -73.4003   24.8796  -76.4574 H         1 UNK         0.3213 
     97 H97       -71.2106   24.7678  -79.3111 H         1 UNK         0.0855 
     98 H98       -72.7256   22.6778  -77.6530 H         1 UNK         0.0814 
     99 H99       -71.0140   22.6288  -78.0544 H         1 UNK         0.0814 
    100 H100      -72.2140   22.4975  -79.3297 H         1 UNK         0.0814 
    101 H101      -74.0755   24.6687  -78.4449 H         1 UNK         0.3105 
    102 H102      -74.9433   27.3255  -80.5648 H         1 UNK         0.0547 
    103 H103      -74.9924   25.4983  -82.2700 H         1 UNK         0.0837 
    104 H104      -75.6579   24.3869  -81.0823 H         1 UNK         0.0837 
    105 H105      -76.5911   25.7893  -81.6083 H         1 UNK         0.0837 
    106 H106      -76.5685   25.5385  -79.0608 H         1 UNK         0.3020 
    107 H107      -75.8700   26.7424  -75.8488 H         1 UNK         0.1245 
    108 H108      -77.3514   28.6386  -76.8850 H         1 UNK         0.0781 
    109 H109      -78.4897   27.3785  -77.2793 H         1 UNK         0.0781 
    110 H110      -77.6535   30.0062  -74.7443 H         1 UNK         0.0836 
    111 H111      -76.2747   28.9545  -74.5357 H         1 UNK         0.0836 
    112 H112      -78.0061   25.1023  -76.6124 H         1 UNK         0.3022 
    113 H113      -77.1669   22.4236  -77.3968 H         1 UNK         0.0747 
    114 H114      -76.4246   20.7637  -75.6622 H         1 UNK         0.0793 
    115 H115      -75.0537   21.5998  -76.3612 H         1 UNK         0.0793 
    116 H116      -75.6300   22.0551  -74.7630 H         1 UNK         0.0793 
    117 H117      -78.1713   23.6712  -74.9522 H         1 UNK         0.3047 
    118 H118      -81.1329   21.6356  -74.9874 H         1 UNK         0.0822 
    119 H119      -80.7668   21.8850  -72.5567 H         1 UNK         0.0807 
    120 H120      -79.1111   22.4237  -72.8226 H         1 UNK         0.0807 
    121 H121      -79.5804   20.7778  -73.2277 H         1 UNK         0.0807 
    122 H122      -80.6606   24.1315  -73.7419 H         1 UNK         0.2946 
    123 H123      -81.4592   26.3363  -76.0305 H         1 UNK         0.1144 
    124 H124      -83.6224   25.4082  -76.8879 H         1 UNK         0.0793 
    125 H125      -83.9212   26.6974  -75.7389 H         1 UNK         0.0793 
    126 H126      -84.1224   25.0161  -75.2477 H         1 UNK         0.0793 
    127 H127      -81.7480   25.3511  -73.3189 H         1 UNK         0.2896 
@<TRIPOS>BOND
     1    1    2 1    
     2    1   67 1    
     3    1   68 1    
     4    1   69 1    
     5    2    3 2    
     6    2    4 am   BACKBONE|DICT|INTERRES
     7    4    5 1    
     8    4   70 1    
     9    5    6 1    
    10    5   65 1    
    11    5   71 1    
    12    6    7 1    
    13    6   72 1    
    14    6   73 1    
    15    7    8 1    
    16    8    9 1    
    17    8   74 1    
    18    8   75 1    
    19    9   10 ar   
    20    9   14 ar   
    21   10   11 ar   
    22   10   76 1    
    23   11   12 ar   
    24   11   48 1    
    25   12   13 ar   
    26   12   77 1    
    27   13   14 ar   
    28   13   15 1    
    29   14   78 1    
    30   15   16 1    
    31   15   79 1    
    32   15   80 1    
    33   16   17 1    
    34   17   18 1    
    35   17   81 1    
    36   17   82 1    
    37   18   19 1    
    38   18   22 1    
    39   18   83 1    
    40   19   20 am   BACKBONE|DICT|INTERRES
    41   19   21 2    
    42   20   84 1    
    43   20   85 1    
    44   22   23 am   BACKBONE|DICT|INTERRES
    45   22   86 1    
    46   23   24 2    
    47   23   25 1    
    48   25   26 1    
    49   25   27 1    
    50   25   87 1    
    51   26   88 1    
    52   26   89 1    
    53   26   90 1    
    54   27   28 am   BACKBONE|DICT|INTERRES
    55   27   91 1    
    56   28   29 2    
    57   28   30 1    
    58   30   31 1    
    59   30   32 1    
    60   30   92 1    
    61   31   93 1    
    62   31   94 1    
    63   31   95 1    
    64   32   33 am   BACKBONE|DICT|INTERRES
    65   32   96 1    
    66   33   34 2    
    67   33   35 1    
    68   35   36 1    
    69   35   37 1    
    70   35   97 1    
    71   36   98 1    
    72   36   99 1    
    73   36  100 1    
    74   37   38 am   BACKBONE|DICT|INTERRES
    75   37  101 1    
    76   38   39 2    
    77   38   40 1    
    78   40   41 1    
    79   40   42 1    
    80   40  102 1    
    81   41  103 1    
    82   41  104 1    
    83   41  105 1    
    84   42   43 am   BACKBONE|DICT|INTERRES
    85   42  106 1    
    86   43   44 2    
    87   43   45 1    
    88   45   46 1    
    89   45   49 1    
    90   45  107 1    
    91   46   47 1    
    92   46  108 1    
    93   46  109 1    
    94   47   48 1    
    95   48  110 1    
    96   48  111 1    
    97   49   50 am   BACKBONE|DICT|INTERRES
    98   49  112 1    
    99   50   51 2    
   100   50   52 1    
   101   52   53 1    
   102   52   54 1    
   103   52  113 1    
   104   53  114 1    
   105   53  115 1    
   106   53  116 1    
   107   54   55 am   BACKBONE|DICT|INTERRES
   108   54  117 1    
   109   55   56 2    
   110   55   57 1    
   111   57   58 1    
   112   57   59 1    
   113   57  118 1    
   114   58  119 1    
   115   58  120 1    
   116   58  121 1    
   117   59   60 am   BACKBONE|DICT|INTERRES
   118   59  122 1    
   119   60   61 2    
   120   60   62 1    
   121   62   63 1    
   122   62   64 1    
   123   62  123 1    
   124   63  124 1    
   125   63  125 1    
   126   63  126 1    
   127   64   65 am   BACKBONE|DICT|INTERRES
   128   64  127 1    
   129   65   66 2    
@<TRIPOS>SUBSTRUCTURE
     1 UNK         1 GROUP             0       ****    0 ROOT    
