@<TRIPOS>MOLECULE
3R135
127   129    1
SMALL
USER_CHARGES


@<TRIPOS>ATOM
      1 CA        -80.8145   31.3595  -75.8522 C.3       0 UNK        -0.1998 
      2 C         -80.6209   30.0088  -75.1797 C.2       0 UNK         0.4909 
      3 O         -79.9425   29.1463  -75.7337 O.2       0 UNK        -0.5240 
      4 N         -81.2096   29.8256  -73.9903 N.am      1 UNK        -0.4739 
      5 CA        -81.1403   28.6030  -73.1818 C.3       1 UNK         0.0864 
      6 C6        -81.8033   28.8348  -71.8011 C.3       11 UNK        -0.0881 
      7 S7        -81.2682   27.6438  -70.5276 S.3       11 UNK        -0.2682 
      8 C8        -80.0354   28.6127  -69.5988 C.3       11 UNK         0.0289 
      9 C9        -78.6774   28.5824  -70.2825 C.ar      11 UNK        -0.0687 
     10 C10       -77.8319   27.4868  -70.0851 C.ar      11 UNK        -0.0823 
     11 C11       -76.5924   27.4181  -70.7285 C.ar      11 UNK        -0.0830 
     12 C12       -76.1941   28.4707  -71.5541 C.ar      11 UNK        -0.1021 
     13 C13       -77.0134   29.5866  -71.7337 C.ar      11 UNK        -0.0753 
     14 C14       -78.2608   29.6370  -71.1028 C.ar      11 UNK        -0.0933 
     15 C15       -76.5212   30.7334  -72.5994 C.3       11 UNK         0.0166 
     16 S16       -76.6761   30.3315  -74.3636 S.3       11 UNK        -0.2615 
     17 C17       -75.4151   31.4276  -75.0966 C.3       11 UNK        -0.0865 
     18 CA        -74.2918   30.6644  -75.8668 C.3       10 UNK         0.0862 
     19 C         -73.3681   31.6295  -76.6734 C.2       10 UNK         0.5551 
     20 N         -72.0906   31.3200  -76.8619 N.am      10 UNK        -0.7319 
     21 O         -73.8177   32.6630  -77.1632 O.2       10 UNK        -0.5018 
     22 N         -73.5543   29.6557  -75.0707 N.am      10 UNK        -0.4509 
     23 C         -72.8427   29.9014  -73.9620 C.2       10 UNK         0.4899 
     24 O         -72.8259   30.9978  -73.4018 O.2       10 UNK        -0.4839 
     25 CA        -71.9500   28.7823  -73.3911 C.3       9 UNK         0.0222 
     26 CB        -72.1470   28.5908  -71.8744 C.3       9 UNK        -0.1966 
     27 N         -72.0606   27.4757  -74.0576 N.am      9 UNK        -0.4218 
     28 C         -70.9988   26.7056  -74.3505 C.2       9 UNK         0.5020 
     29 O         -69.8312   27.0922  -74.2754 O.2       9 UNK        -0.5274 
     30 CA        -71.2565   25.2461  -74.7593 C.3       8 UNK         0.0270 
     31 CB        -71.6294   24.3925  -73.5341 C.3       8 UNK        -0.1976 
     32 N         -72.2990   25.1321  -75.7763 N.am      8 UNK        -0.4313 
     33 C         -72.0719   25.0620  -77.0961 C.2       8 UNK         0.5041 
     34 O         -70.9460   25.0485  -77.5963 O.2       8 UNK        -0.5577 
     35 CA        -73.2979   24.9926  -78.0307 C.3       7 UNK         0.0284 
     36 CB        -73.5595   23.5418  -78.4667 C.3       7 UNK        -0.1958 
     37 N         -74.5240   25.5443  -77.4501 N.am      7 UNK        -0.4454 
     38 C         -74.6770   26.8165  -77.0606 C.2       7 UNK         0.5089 
     39 O         -73.8224   27.6881  -77.2129 O.2       7 UNK        -0.5125 
     40 CA        -75.9605   27.1492  -76.2884 C.3       6 UNK         0.0408 
     41 CB        -77.1067   27.4770  -77.2538 C.3       6 UNK        -0.1791 
     42 N         -76.3638   26.0819  -75.3716 N.am      6 UNK        -0.4762 
     43 C         -75.6357   25.6233  -74.3431 C.2       6 UNK         0.5007 
     44 O         -74.5385   26.0878  -74.0308 O.2       6 UNK        -0.5032 
     45 CA        -76.1965   24.4039  -73.5860 C.3       5 UNK         0.0783 
     46 C46       -77.2045   24.8177  -72.4817 C.3       11 UNK        -0.0857 
     47 S47       -76.5181   24.6194  -70.8051 S.3       11 UNK        -0.2512 
     48 C48       -75.6765   26.2146  -70.5425 C.3       11 UNK         0.0225 
     49 N         -76.7991   23.4619  -74.5283 N.am      5 UNK        -0.4615 
     50 C         -76.1287   22.5399  -75.2281 C.2       4 UNK         0.5053 
     51 O         -74.9204   22.3382  -75.1119 O.2       4 UNK        -0.5105 
     52 CA        -76.9428   21.7066  -76.2351 C.3       4 UNK         0.0263 
     53 CB        -77.3937   20.3841  -75.5949 C.3       4 UNK        -0.1981 
     54 N         -78.1154   22.4143  -76.7615 N.am      4 UNK        -0.4224 
     55 C         -78.0487   23.4758  -77.5766 C.2       3 UNK         0.4895 
     56 O         -76.9913   23.9538  -77.9892 O.2       3 UNK        -0.5091 
     57 CA        -79.3823   24.1443  -77.9607 C.3       3 UNK         0.0250 
     58 CB        -80.0332   23.4021  -79.1389 C.3       3 UNK        -0.1996 
     59 N         -80.3584   24.2850  -76.8680 N.am      3 UNK        -0.4254 
     60 C         -80.1204   24.8700  -75.6853 C.2       2 UNK         0.5004 
     61 O         -79.0002   25.2148  -75.3064 O.2       2 UNK        -0.5226 
     62 CA        -81.3132   25.0848  -74.7465 C.3       2 UNK         0.0269 
     63 CB        -81.4875   23.8727  -73.8174 C.3       2 UNK        -0.1926 
     64 N         -81.0307   26.2700  -73.9368 N.am      2 UNK        -0.4687 
     65 C         -81.7547   27.3941  -73.9253 C.2       1 UNK         0.5165 
     66 O         -82.8569   27.5084  -74.4688 O.2       1 UNK        -0.5079 
     67 H67       -79.8485   31.8396  -76.0073 H         1 UNK         0.0900 
     68 H68       -81.4342   32.0286  -75.2555 H         1 UNK         0.0900 
     69 H69       -81.2913   31.2300  -76.8234 H         1 UNK         0.0900 
     70 H70       -81.7828   30.5654  -73.6115 H         1 UNK         0.2959 
     71 H71       -80.0770   28.4041  -73.0275 H         1 UNK         0.1079 
     72 H72       -81.5772   29.8394  -71.4410 H         1 UNK         0.0837 
     73 H73       -82.8918   28.7968  -71.8800 H         1 UNK         0.0837 
     74 H74       -80.3806   29.6380  -69.4587 H         1 UNK         0.0685 
     75 H75       -79.9444   28.1890  -68.5974 H         1 UNK         0.0685 
     76 H76       -78.1506   26.6734  -69.4474 H         1 UNK         0.1434 
     77 H77       -75.2458   28.4282  -72.0693 H         1 UNK         0.1329 
     78 H78       -78.9050   30.4929  -71.2507 H         1 UNK         0.1335 
     79 H79       -75.4775   30.9354  -72.3536 H         1 UNK         0.0680 
     80 H80       -77.0742   31.6496  -72.3874 H         1 UNK         0.0680 
     81 H81       -74.9869   32.0813  -74.3361 H         1 UNK         0.1032 
     82 H82       -75.9489   32.0926  -75.7778 H         1 UNK         0.1032 
     83 H83       -74.7984   30.0908  -76.6425 H         1 UNK         0.0461 
     84 H84       -71.5037   31.9437  -77.3931 H         1 UNK         0.3453 
     85 H85       -71.7140   30.4628  -76.4911 H         1 UNK         0.3453 
     86 H86       -73.4705   28.7525  -75.5228 H         1 UNK         0.2984 
     87 H87       -70.9400   29.1723  -73.5303 H         1 UNK         0.0554 
     88 H88       -71.3465   27.9836  -71.4516 H         1 UNK         0.0847 
     89 H89       -73.0878   28.0936  -71.6472 H         1 UNK         0.0847 
     90 H90       -72.1387   29.5420  -71.3407 H         1 UNK         0.0847 
     91 H91       -72.9913   27.0631  -74.1079 H         1 UNK         0.3141 
     92 H92       -70.3205   24.8457  -75.1552 H         1 UNK         0.0743 
     93 H93       -70.8324   24.4156  -72.7897 H         1 UNK         0.0784 
     94 H94       -72.5375   24.7434  -73.0442 H         1 UNK         0.0784 
     95 H95       -71.7829   23.3494  -73.8114 H         1 UNK         0.0784 
     96 H96       -73.2554   25.1770  -75.4482 H         1 UNK         0.3213 
     97 H97       -73.0614   25.5816  -78.9193 H         1 UNK         0.0855 
     98 H98       -72.6769   23.1108  -78.9413 H         1 UNK         0.0814 
     99 H99       -74.3756   23.4842  -79.1874 H         1 UNK         0.0814 
    100 H100      -73.8169   22.9070  -77.6182 H         1 UNK         0.0814 
    101 H101      -75.3138   24.9129  -77.3514 H         1 UNK         0.3105 
    102 H102      -75.7632   28.0276  -75.6781 H         1 UNK         0.0547 
    103 H103      -76.8755   28.3656  -77.8420 H         1 UNK         0.0837 
    104 H104      -77.2949   26.6624  -77.9521 H         1 UNK         0.0837 
    105 H105      -78.0318   27.6761  -76.7145 H         1 UNK         0.0837 
    106 H106      -77.2938   25.6884  -75.5106 H         1 UNK         0.3020 
    107 H107      -75.3410   23.9059  -73.1229 H         1 UNK         0.1245 
    108 H108      -78.0900   24.1808  -72.5140 H         1 UNK         0.0781 
    109 H109      -77.5943   25.8275  -72.6238 H         1 UNK         0.0781 
    110 H110      -74.8227   26.2682  -71.2197 H         1 UNK         0.0836 
    111 H111      -75.2680   26.2359  -69.5314 H         1 UNK         0.0836 
    112 H112      -77.7738   23.6251  -74.7476 H         1 UNK         0.3022 
    113 H113      -76.2835   21.4735  -77.0743 H         1 UNK         0.0747 
    114 H114      -77.9028   19.7461  -76.3176 H         1 UNK         0.0793 
    115 H115      -76.5381   19.8228  -75.2165 H         1 UNK         0.0793 
    116 H116      -78.0708   20.5506  -74.7560 H         1 UNK         0.0793 
    117 H117      -79.0243   22.0879  -76.4665 H         1 UNK         0.3047 
    118 H118      -79.1434   25.1548  -78.2968 H         1 UNK         0.0822 
    119 H119      -80.9029   23.9403  -79.5164 H         1 UNK         0.0807 
    120 H120      -80.3548   22.3984  -78.8579 H         1 UNK         0.0807 
    121 H121      -79.3343   23.2995  -79.9706 H         1 UNK         0.0807 
    122 H122      -81.3043   24.0017  -77.0812 H         1 UNK         0.2946 
    123 H123      -82.2172   25.2243  -75.3438 H         1 UNK         0.1144 
    124 H124      -82.3162   24.0238  -73.1253 H         1 UNK         0.0793 
    125 H125      -80.5909   23.6823  -73.2259 H         1 UNK         0.0793 
    126 H126      -81.7027   22.9680  -74.3875 H         1 UNK         0.0793 
    127 H127      -80.1050   26.2862  -73.5311 H         1 UNK         0.2896 
@<TRIPOS>BOND
     1    1    2 1    
     2    1   67 1    
     3    1   68 1    
     4    1   69 1    
     5    2    3 2    
     6    2    4 am   BACKBONE|DICT|INTERRES
     7    4    5 1    
     8    4   70 1    
     9    5    6 1    
    10    5   65 1    
    11    5   71 1    
    12    6    7 1    
    13    6   72 1    
    14    6   73 1    
    15    7    8 1    
    16    8    9 1    
    17    8   74 1    
    18    8   75 1    
    19    9   10 ar   
    20    9   14 ar   
    21   10   11 ar   
    22   10   76 1    
    23   11   12 ar   
    24   11   48 1    
    25   12   13 ar   
    26   12   77 1    
    27   13   14 ar   
    28   13   15 1    
    29   14   78 1    
    30   15   16 1    
    31   15   79 1    
    32   15   80 1    
    33   16   17 1    
    34   17   18 1    
    35   17   81 1    
    36   17   82 1    
    37   18   19 1    
    38   18   22 1    
    39   18   83 1    
    40   19   20 am   BACKBONE|DICT|INTERRES
    41   19   21 2    
    42   20   84 1    
    43   20   85 1    
    44   22   23 am   BACKBONE|DICT|INTERRES
    45   22   86 1    
    46   23   24 2    
    47   23   25 1    
    48   25   26 1    
    49   25   27 1    
    50   25   87 1    
    51   26   88 1    
    52   26   89 1    
    53   26   90 1    
    54   27   28 am   BACKBONE|DICT|INTERRES
    55   27   91 1    
    56   28   29 2    
    57   28   30 1    
    58   30   31 1    
    59   30   32 1    
    60   30   92 1    
    61   31   93 1    
    62   31   94 1    
    63   31   95 1    
    64   32   33 am   BACKBONE|DICT|INTERRES
    65   32   96 1    
    66   33   34 2    
    67   33   35 1    
    68   35   36 1    
    69   35   37 1    
    70   35   97 1    
    71   36   98 1    
    72   36   99 1    
    73   36  100 1    
    74   37   38 am   BACKBONE|DICT|INTERRES
    75   37  101 1    
    76   38   39 2    
    77   38   40 1    
    78   40   41 1    
    79   40   42 1    
    80   40  102 1    
    81   41  103 1    
    82   41  104 1    
    83   41  105 1    
    84   42   43 am   BACKBONE|DICT|INTERRES
    85   42  106 1    
    86   43   44 2    
    87   43   45 1    
    88   45   46 1    
    89   45   49 1    
    90   45  107 1    
    91   46   47 1    
    92   46  108 1    
    93   46  109 1    
    94   47   48 1    
    95   48  110 1    
    96   48  111 1    
    97   49   50 am   BACKBONE|DICT|INTERRES
    98   49  112 1    
    99   50   51 2    
   100   50   52 1    
   101   52   53 1    
   102   52   54 1    
   103   52  113 1    
   104   53  114 1    
   105   53  115 1    
   106   53  116 1    
   107   54   55 am   BACKBONE|DICT|INTERRES
   108   54  117 1    
   109   55   56 2    
   110   55   57 1    
   111   57   58 1    
   112   57   59 1    
   113   57  118 1    
   114   58  119 1    
   115   58  120 1    
   116   58  121 1    
   117   59   60 am   BACKBONE|DICT|INTERRES
   118   59  122 1    
   119   60   61 2    
   120   60   62 1    
   121   62   63 1    
   122   62   64 1    
   123   62  123 1    
   124   63  124 1    
   125   63  125 1    
   126   63  126 1    
   127   64   65 am   BACKBONE|DICT|INTERRES
   128   64  127 1    
   129   65   66 2    
@<TRIPOS>SUBSTRUCTURE
     1 UNK         1 GROUP             0       ****    0 ROOT    
