@<TRIPOS>MOLECULE
3R135
127   129    1
SMALL
USER_CHARGES


@<TRIPOS>ATOM
      1 CA        -83.7401   28.1743  -74.0024 C.3       0 UNK        -0.1998 
      2 C         -82.6728   28.9647  -74.7444 C.2       0 UNK         0.4909 
      3 O         -82.9572   29.5440  -75.7927 O.2       0 UNK        -0.5240 
      4 N         -81.4457   28.9904  -74.2073 N.am      1 UNK        -0.4739 
      5 CA        -80.2896   29.6949  -74.7824 C.3       1 UNK         0.0864 
      6 C6        -79.1203   29.8107  -73.7734 C.3       11 UNK        -0.0881 
      7 S7        -79.5748   30.6687  -72.2319 S.3       11 UNK        -0.2682 
      8 C8        -79.6871   29.2775  -71.0586 C.3       11 UNK         0.0289 
      9 C9        -78.3401   28.6119  -70.8029 C.ar      11 UNK        -0.0687 
     10 C10       -78.1219   27.2781  -71.1656 C.ar      11 UNK        -0.0823 
     11 C11       -76.9106   26.6435  -70.8668 C.ar      11 UNK        -0.0830 
     12 C12       -75.9033   27.3714  -70.2178 C.ar      11 UNK        -0.1021 
     13 C13       -76.1059   28.7087  -69.8597 C.ar      11 UNK        -0.0753 
     14 C14       -77.3285   29.3187  -70.1498 C.ar      11 UNK        -0.0933 
     15 C15       -75.0350   29.4757  -69.0948 C.3       11 UNK         0.0166 
     16 S16       -73.7225   30.1303  -70.1735 S.3       11 UNK        -0.2615 
     17 C17       -74.5839   31.4539  -71.1042 C.3       11 UNK        -0.0865 
     18 CA        -74.3519   31.3778  -72.6371 C.3       10 UNK         0.0862 
     19 C         -72.9327   31.8937  -73.0234 C.2       10 UNK         0.5551 
     20 N         -72.0112   31.0490  -73.4709 N.am      10 UNK        -0.7319 
     21 O         -72.6700   33.0896  -72.9200 O.2       10 UNK        -0.5018 
     22 N         -74.6973   30.0488  -73.1576 N.am      10 UNK        -0.4509 
     23 C         -74.8443   29.7289  -74.4469 C.2       10 UNK         0.4899 
     24 O         -74.8416   30.5399  -75.3743 O.2       10 UNK        -0.4839 
     25 CA        -74.9900   28.2278  -74.7386 C.3       9 UNK         0.0222 
     26 CB        -76.2457   27.9284  -75.5691 C.3       9 UNK        -0.1966 
     27 N         -73.8153   27.6724  -75.4162 N.am      9 UNK        -0.4218 
     28 C         -72.5673   27.6641  -74.9190 C.2       9 UNK         0.5020 
     29 O         -72.2698   28.1593  -73.8308 O.2       9 UNK        -0.5274 
     30 CA        -71.4583   26.9707  -75.7321 C.3       8 UNK         0.0270 
     31 CB        -70.7863   25.8624  -74.9016 C.3       8 UNK        -0.1976 
     32 N         -71.9421   26.3939  -76.9884 N.am      8 UNK        -0.4313 
     33 C         -71.9428   27.0336  -78.1667 C.2       8 UNK         0.5041 
     34 O         -71.5107   28.1766  -78.3202 O.2       8 UNK        -0.5577 
     35 CA        -72.5207   26.2894  -79.3869 C.3       7 UNK         0.0284 
     36 CB        -71.3855   25.7460  -80.2703 C.3       7 UNK        -0.1958 
     37 N         -73.4310   25.1910  -79.0491 N.am      7 UNK        -0.4454 
     38 C         -74.6156   25.3365  -78.4410 C.2       7 UNK         0.5089 
     39 O         -75.0707   26.4291  -78.1034 O.2       7 UNK        -0.5125 
     40 CA        -75.4114   24.0572  -78.1126 C.3       6 UNK         0.0408 
     41 CB        -74.8033   22.7599  -78.6934 C.3       6 UNK        -0.1791 
     42 N         -75.6348   23.9083  -76.6684 N.am      6 UNK        -0.4762 
     43 C         -74.6892   23.8730  -75.7141 C.2       6 UNK         0.5007 
     44 O         -73.4869   24.0060  -75.9511 O.2       6 UNK        -0.5032 
     45 CA        -75.1307   23.6370  -74.2546 C.3       5 UNK         0.0783 
     46 C46       -75.0713   24.9411  -73.4270 C.3       11 UNK        -0.0857 
     47 S47       -75.0881   24.6128  -71.6357 S.3       11 UNK        -0.2512 
     48 C48       -76.7647   25.1480  -71.1535 C.3       11 UNK         0.0225 
     49 N         -76.4452   22.9975  -74.1527 N.am      5 UNK        -0.4615 
     50 C         -76.6712   21.6879  -74.2864 C.2       4 UNK         0.5053 
     51 O         -75.7982   20.8720  -74.5827 O.2       4 UNK        -0.5105 
     52 CA        -78.1059   21.1926  -74.0273 C.3       4 UNK         0.0263 
     53 CB        -78.4099   21.1512  -72.5160 C.3       4 UNK        -0.1981 
     54 N         -79.1536   21.9107  -74.7685 N.am      4 UNK        -0.4224 
     55 C         -79.5450   23.1876  -74.6539 C.2       3 UNK         0.4895 
     56 O         -79.0578   24.0010  -73.8645 O.2       3 UNK        -0.5091 
     57 CA        -80.6951   23.6223  -75.5789 C.3       3 UNK         0.0250 
     58 CB        -82.0361   23.5462  -74.8309 C.3       3 UNK        -0.1996 
     59 N         -80.5189   24.9779  -76.1057 N.am      3 UNK        -0.4254 
     60 C         -79.4787   25.3878  -76.8480 C.2       2 UNK         0.5004 
     61 O         -78.5488   24.6573  -77.1864 O.2       2 UNK        -0.5226 
     62 CA        -79.4731   26.8602  -77.2735 C.3       2 UNK         0.0269 
     63 CB        -80.3239   27.0639  -78.5421 C.3       2 UNK        -0.1926 
     64 N         -79.9468   27.7065  -76.1773 N.am      2 UNK        -0.4687 
     65 C         -79.7846   29.0323  -76.0822 C.2       1 UNK         0.5165 
     66 O         -79.2445   29.7225  -76.9471 O.2       1 UNK        -0.5079 
     67 H67       -83.3505   27.7117  -73.0957 H         1 UNK         0.0900 
     68 H68       -84.1362   27.3860  -74.6420 H         1 UNK         0.0900 
     69 H69       -84.5635   28.8301  -73.7207 H         1 UNK         0.0900 
     70 H70       -81.2813   28.5243  -73.3278 H         1 UNK         0.2959 
     71 H71       -80.6132   30.7045  -75.0463 H         1 UNK         0.1079 
     72 H72       -78.2897   30.3652  -74.2159 H         1 UNK         0.0837 
     73 H73       -78.7280   28.8230  -73.5302 H         1 UNK         0.0837 
     74 H74       -80.0790   29.6524  -70.1121 H         1 UNK         0.0685 
     75 H75       -80.4173   28.5539  -71.4221 H         1 UNK         0.0685 
     76 H76       -78.9129   26.7181  -71.6464 H         1 UNK         0.1434 
     77 H77       -74.9702   26.8910  -69.9576 H         1 UNK         0.1329 
     78 H78       -77.5061   30.3428  -69.8513 H         1 UNK         0.1335 
     79 H79       -75.4780   30.2970  -68.5290 H         1 UNK         0.0680 
     80 H80       -74.5790   28.8147  -68.3562 H         1 UNK         0.0680 
     81 H81       -74.2699   32.4220  -70.7090 H         1 UNK         0.1032 
     82 H82       -75.6540   31.4037  -70.9075 H         1 UNK         0.1032 
     83 H83       -75.0501   32.0785  -73.0991 H         1 UNK         0.0461 
     84 H84       -71.0994   31.3980  -73.7176 H         1 UNK         0.3453 
     85 H85       -72.2079   30.0540  -73.5344 H         1 UNK         0.3453 
     86 H86       -74.6714   29.3077  -72.4711 H         1 UNK         0.2984 
     87 H87       -75.0920   27.7149  -73.7819 H         1 UNK         0.0554 
     88 H88       -76.3675   26.8602  -75.7478 H         1 UNK         0.0847 
     89 H89       -76.2204   28.4290  -76.5382 H         1 UNK         0.0847 
     90 H90       -77.1372   28.2679  -75.0508 H         1 UNK         0.0847 
     91 H91       -73.9733   27.2808  -76.3369 H         1 UNK         0.3141 
     92 H92       -70.7010   27.7277  -75.9462 H         1 UNK         0.0743 
     93 H93       -70.3290   26.2723  -74.0001 H         1 UNK         0.0784 
     94 H94       -71.5007   25.1026  -74.5838 H         1 UNK         0.0784 
     95 H95       -69.9962   25.3664  -75.4655 H         1 UNK         0.0784 
     96 H96       -72.3517   25.4664  -76.9258 H         1 UNK         0.3213 
     97 H97       -73.0865   27.0203  -79.9689 H         1 UNK         0.0855 
     98 H98       -70.7058   26.5458  -80.5680 H         1 UNK         0.0814 
     99 H99       -71.7726   25.2971  -81.1853 H         1 UNK         0.0814 
    100 H100      -70.7929   24.9932  -79.7490 H         1 UNK         0.0814 
    101 H101      -73.1184   24.2567  -79.2699 H         1 UNK         0.3105 
    102 H102      -76.3909   24.1891  -78.5723 H         1 UNK         0.0547 
    103 H103      -74.7011   22.8199  -79.7778 H         1 UNK         0.0837 
    104 H104      -73.8219   22.5354  -78.2741 H         1 UNK         0.0837 
    105 H105      -75.4472   21.9053  -78.4857 H         1 UNK         0.0837 
    106 H106      -76.6085   23.8614  -76.3922 H         1 UNK         0.3020 
    107 H107      -74.3895   22.9496  -73.8391 H         1 UNK         0.1245 
    108 H108      -75.8978   25.6009  -73.6917 H         1 UNK         0.0781 
    109 H109      -74.1485   25.4855  -73.6306 H         1 UNK         0.0781 
    110 H110      -77.0419   24.6079  -70.2474 H         1 UNK         0.0836 
    111 H111      -77.4723   24.8305  -71.9195 H         1 UNK         0.0836 
    112 H112      -77.2413   23.5893  -73.9285 H         1 UNK         0.3022 
    113 H113      -78.1468   20.1644  -74.3912 H         1 UNK         0.0747 
    114 H114      -79.3931   20.7227  -72.3215 H         1 UNK         0.0793 
    115 H115      -77.6787   20.5361  -71.9898 H         1 UNK         0.0793 
    116 H116      -78.3815   22.1426  -72.0628 H         1 UNK         0.0793 
    117 H117      -79.6176   21.3516  -75.4716 H         1 UNK         0.3047 
    118 H118      -80.7336   22.9444  -76.4343 H         1 UNK         0.0822 
    119 H119      -82.8728   23.7921  -75.4854 H         1 UNK         0.0807 
    120 H120      -82.0619   24.2285  -73.9800 H         1 UNK         0.0807 
    121 H121      -82.2136   22.5408  -74.4463 H         1 UNK         0.0807 
    122 H122      -81.2629   25.6298  -75.9123 H         1 UNK         0.2946 
    123 H123      -78.4381   27.1290  -77.4985 H         1 UNK         0.1144 
    124 H124      -80.2344   28.0802  -78.9253 H         1 UNK         0.0793 
    125 H125      -81.3805   26.8697  -78.3552 H         1 UNK         0.0793 
    126 H126      -80.0023   26.3921  -79.3393 H         1 UNK         0.0793 
    127 H127      -80.3482   27.2272  -75.3845 H         1 UNK         0.2896 
@<TRIPOS>BOND
     1    1    2 1    
     2    1   67 1    
     3    1   68 1    
     4    1   69 1    
     5    2    3 2    
     6    2    4 am   BACKBONE|DICT|INTERRES
     7    4    5 1    
     8    4   70 1    
     9    5    6 1    
    10    5   65 1    
    11    5   71 1    
    12    6    7 1    
    13    6   72 1    
    14    6   73 1    
    15    7    8 1    
    16    8    9 1    
    17    8   74 1    
    18    8   75 1    
    19    9   10 ar   
    20    9   14 ar   
    21   10   11 ar   
    22   10   76 1    
    23   11   12 ar   
    24   11   48 1    
    25   12   13 ar   
    26   12   77 1    
    27   13   14 ar   
    28   13   15 1    
    29   14   78 1    
    30   15   16 1    
    31   15   79 1    
    32   15   80 1    
    33   16   17 1    
    34   17   18 1    
    35   17   81 1    
    36   17   82 1    
    37   18   19 1    
    38   18   22 1    
    39   18   83 1    
    40   19   20 am   BACKBONE|DICT|INTERRES
    41   19   21 2    
    42   20   84 1    
    43   20   85 1    
    44   22   23 am   BACKBONE|DICT|INTERRES
    45   22   86 1    
    46   23   24 2    
    47   23   25 1    
    48   25   26 1    
    49   25   27 1    
    50   25   87 1    
    51   26   88 1    
    52   26   89 1    
    53   26   90 1    
    54   27   28 am   BACKBONE|DICT|INTERRES
    55   27   91 1    
    56   28   29 2    
    57   28   30 1    
    58   30   31 1    
    59   30   32 1    
    60   30   92 1    
    61   31   93 1    
    62   31   94 1    
    63   31   95 1    
    64   32   33 am   BACKBONE|DICT|INTERRES
    65   32   96 1    
    66   33   34 2    
    67   33   35 1    
    68   35   36 1    
    69   35   37 1    
    70   35   97 1    
    71   36   98 1    
    72   36   99 1    
    73   36  100 1    
    74   37   38 am   BACKBONE|DICT|INTERRES
    75   37  101 1    
    76   38   39 2    
    77   38   40 1    
    78   40   41 1    
    79   40   42 1    
    80   40  102 1    
    81   41  103 1    
    82   41  104 1    
    83   41  105 1    
    84   42   43 am   BACKBONE|DICT|INTERRES
    85   42  106 1    
    86   43   44 2    
    87   43   45 1    
    88   45   46 1    
    89   45   49 1    
    90   45  107 1    
    91   46   47 1    
    92   46  108 1    
    93   46  109 1    
    94   47   48 1    
    95   48  110 1    
    96   48  111 1    
    97   49   50 am   BACKBONE|DICT|INTERRES
    98   49  112 1    
    99   50   51 2    
   100   50   52 1    
   101   52   53 1    
   102   52   54 1    
   103   52  113 1    
   104   53  114 1    
   105   53  115 1    
   106   53  116 1    
   107   54   55 am   BACKBONE|DICT|INTERRES
   108   54  117 1    
   109   55   56 2    
   110   55   57 1    
   111   57   58 1    
   112   57   59 1    
   113   57  118 1    
   114   58  119 1    
   115   58  120 1    
   116   58  121 1    
   117   59   60 am   BACKBONE|DICT|INTERRES
   118   59  122 1    
   119   60   61 2    
   120   60   62 1    
   121   62   63 1    
   122   62   64 1    
   123   62  123 1    
   124   63  124 1    
   125   63  125 1    
   126   63  126 1    
   127   64   65 am   BACKBONE|DICT|INTERRES
   128   64  127 1    
   129   65   66 2    
@<TRIPOS>SUBSTRUCTURE
     1 UNK         1 GROUP             0       ****    0 ROOT    
