@<TRIPOS>MOLECULE
3R135
127   129    1
SMALL
USER_CHARGES


@<TRIPOS>ATOM
      1 CA        -80.8859   24.1958  -69.9708 C.3       0 UNK        -0.1998 
      2 C         -81.6474   24.9545  -71.0474 C.2       0 UNK         0.4909 
      3 O         -82.8105   24.6431  -71.3083 O.2       0 UNK        -0.5240 
      4 N         -81.0000   25.9479  -71.6663 N.am      1 UNK        -0.4739 
      5 CA        -81.5326   26.7226  -72.7919 C.3       1 UNK         0.0864 
      6 C6        -81.0715   28.2053  -72.7554 C.3       11 UNK        -0.0881 
      7 S7        -81.6451   29.0434  -71.2316 S.3       11 UNK        -0.2682 
      8 C8        -80.4520   30.4181  -71.0306 C.3       11 UNK         0.0289 
      9 C9        -78.9818   30.0155  -70.8974 C.ar      11 UNK        -0.0687 
     10 C10       -78.5895   28.7216  -70.5344 C.ar      11 UNK        -0.0823 
     11 C11       -77.2434   28.3503  -70.5529 C.ar      11 UNK        -0.0830 
     12 C12       -76.2696   29.3102  -70.8408 C.ar      11 UNK        -0.1021 
     13 C13       -76.6398   30.6233  -71.1428 C.ar      11 UNK        -0.0753 
     14 C14       -77.9948   30.9667  -71.1777 C.ar      11 UNK        -0.0933 
     15 C15       -75.5753   31.6576  -71.4700 C.3       11 UNK         0.0166 
     16 S16       -75.2910   31.7313  -73.2626 S.3       11 UNK        -0.2615 
     17 C17       -73.7690   32.7428  -73.3533 C.3       11 UNK        -0.0865 
     18 CA        -72.4800   31.9102  -73.6073 C.3       10 UNK         0.0862 
     19 C         -71.9320   31.2555  -72.3031 C.2       10 UNK         0.5551 
     20 N         -71.7096   29.9487  -72.2379 N.am      10 UNK        -0.7319 
     21 O         -71.6920   31.9587  -71.3246 O.2       10 UNK        -0.5018 
     22 N         -72.6661   30.9973  -74.7429 N.am      10 UNK        -0.4509 
     23 C         -71.7055   30.4531  -75.4934 C.2       10 UNK         0.4899 
     24 O         -70.5041   30.7079  -75.3900 O.2       10 UNK        -0.4839 
     25 CA        -72.1957   29.4527  -76.5544 C.3       9 UNK         0.0222 
     26 CB        -71.9307   29.9941  -77.9690 C.3       9 UNK        -0.1966 
     27 N         -71.6269   28.1061  -76.4361 N.am      9 UNK        -0.4218 
     28 C         -71.4842   27.3749  -75.3193 C.2       9 UNK         0.5020 
     29 O         -71.7131   27.7831  -74.1788 O.2       9 UNK        -0.5274 
     30 CA        -71.0943   25.9070  -75.5451 C.3       8 UNK         0.0270 
     31 CB        -70.8842   25.1263  -74.2339 C.3       8 UNK        -0.1976 
     32 N         -72.1743   25.2858  -76.3074 N.am      8 UNK        -0.4313 
     33 C         -72.0353   24.5908  -77.4435 C.2       8 UNK         0.5041 
     34 O         -70.9436   24.2982  -77.9333 O.2       8 UNK        -0.5577 
     35 CA        -73.3225   24.1606  -78.1793 C.3       7 UNK         0.0284 
     36 CB        -73.6456   22.6895  -77.8726 C.3       7 UNK        -0.1958 
     37 N         -74.4952   24.9837  -77.8655 N.am      7 UNK        -0.4454 
     38 C         -74.6071   26.2974  -78.1107 C.2       7 UNK         0.5089 
     39 O         -73.7780   26.9422  -78.7526 O.2       7 UNK        -0.5125 
     40 CA        -75.8129   27.0341  -77.4938 C.3       6 UNK         0.0408 
     41 CB        -76.8850   27.2972  -78.5592 C.3       6 UNK        -0.1791 
     42 N         -76.4083   26.3673  -76.3233 N.am      6 UNK        -0.4762 
     43 C         -75.7462   26.1460  -75.1739 C.2       6 UNK         0.5007 
     44 O         -74.5605   26.4321  -75.0197 O.2       6 UNK        -0.5032 
     45 CA        -76.4896   25.4654  -74.0121 C.3       5 UNK         0.0783 
     46 C46       -77.2236   26.4972  -73.1326 C.3       11 UNK        -0.0857 
     47 S47       -77.6864   25.7802  -71.5169 S.3       11 UNK        -0.2512 
     48 C48       -76.8508   26.8951  -70.3339 C.3       11 UNK         0.0225 
     49 N         -77.3728   24.4028  -74.4948 N.am      5 UNK        -0.4615 
     50 C         -76.9367   23.1737  -74.7974 C.2       4 UNK         0.5053 
     51 O         -75.7736   22.7994  -74.6457 O.2       4 UNK        -0.5105 
     52 CA        -77.9622   22.2067  -75.4061 C.3       4 UNK         0.0263 
     53 CB        -78.9080   21.6579  -74.3250 C.3       4 UNK        -0.1981 
     54 N         -78.7426   22.8166  -76.4838 N.am      4 UNK        -0.4224 
     55 C         -78.2334   23.3065  -77.6247 C.2       3 UNK         0.4895 
     56 O         -77.0353   23.2977  -77.9059 O.2       3 UNK        -0.5091 
     57 CA        -79.2280   23.9224  -78.6228 C.3       3 UNK         0.0250 
     58 CB        -79.6778   22.8671  -79.6459 C.3       3 UNK        -0.1996 
     59 N         -80.4083   24.5174  -77.9918 N.am      3 UNK        -0.4254 
     60 C         -80.4047   25.5449  -77.1298 C.2       2 UNK         0.5004 
     61 O         -79.3811   26.1399  -76.7814 O.2       2 UNK        -0.5226 
     62 CA        -81.7825   25.9744  -76.5754 C.3       2 UNK         0.0269 
     63 CB        -82.8381   24.8444  -76.6181 C.3       2 UNK        -0.1926 
     64 N         -81.7527   26.5438  -75.2208 N.am      2 UNK        -0.4687 
     65 C         -81.1847   26.0198  -74.1237 C.2       1 UNK         0.5165 
     66 O         -80.4530   25.0233  -74.1334 O.2       1 UNK        -0.5079 
     67 H67       -81.4835   24.1299  -69.0620 H         1 UNK         0.0900 
     68 H68       -79.9440   24.6824  -69.7187 H         1 UNK         0.0900 
     69 H69       -80.6665   23.1840  -70.3106 H         1 UNK         0.0900 
     70 H70       -80.0185   26.0917  -71.4699 H         1 UNK         0.2959 
     71 H71       -82.6233   26.7226  -72.7278 H         1 UNK         0.1079 
     72 H72       -79.9866   28.2696  -72.8406 H         1 UNK         0.0837 
     73 H73       -81.4729   28.7636  -73.6025 H         1 UNK         0.0837 
     74 H74       -80.5686   31.0892  -71.8831 H         1 UNK         0.0685 
     75 H75       -80.7336   30.9903  -70.1460 H         1 UNK         0.0685 
     76 H76       -79.3315   27.9728  -70.2998 H         1 UNK         0.1434 
     77 H77       -75.2241   29.0327  -70.8578 H         1 UNK         0.1329 
     78 H78       -78.2809   31.9742  -71.4483 H         1 UNK         0.1335 
     79 H79       -75.8776   32.6412  -71.1074 H         1 UNK         0.0680 
     80 H80       -74.6445   31.4092  -70.9579 H         1 UNK         0.0680 
     81 H81       -73.6750   33.3665  -72.4620 H         1 UNK         0.1032 
     82 H82       -73.9008   33.4464  -74.1767 H         1 UNK         0.1032 
     83 H83       -71.7051   32.6197  -73.9037 H         1 UNK         0.0461 
     84 H84       -71.8567   29.3409  -73.0390 H         1 UNK         0.3453 
     85 H85       -71.3501   29.5577  -71.3826 H         1 UNK         0.3453 
     86 H86       -73.6214   30.7025  -74.8874 H         1 UNK         0.2984 
     87 H87       -73.2755   29.3330  -76.4440 H         1 UNK         0.0554 
     88 H88       -72.3765   29.3551  -78.7316 H         1 UNK         0.0847 
     89 H89       -70.8626   30.0712  -78.1765 H         1 UNK         0.0847 
     90 H90       -72.3593   30.9895  -78.0938 H         1 UNK         0.0847 
     91 H91       -71.4322   27.6430  -77.3123 H         1 UNK         0.3141 
     92 H92       -70.1598   25.8990  -76.1100 H         1 UNK         0.0743 
     93 H93       -71.7911   25.1063  -73.6277 H         1 UNK         0.0784 
     94 H94       -70.5912   24.0951  -74.4314 H         1 UNK         0.0784 
     95 H95       -70.0960   25.5799  -73.6317 H         1 UNK         0.0784 
     96 H96       -73.1102   25.5304  -75.9903 H         1 UNK         0.3213 
     97 H97       -73.1302   24.2552  -79.2500 H         1 UNK         0.0855 
     98 H98       -73.8939   22.5428  -76.8205 H         1 UNK         0.0814 
     99 H99       -72.7958   22.0449  -78.1017 H         1 UNK         0.0814 
    100 H100      -74.4879   22.3359  -78.4675 H         1 UNK         0.0814 
    101 H101      -75.2697   24.5171  -77.4072 H         1 UNK         0.3105 
    102 H102      -75.4465   28.0040  -77.1510 H         1 UNK         0.0547 
    103 H103      -76.4773   27.8834  -79.3839 H         1 UNK         0.0837 
    104 H104      -77.2628   26.3687  -78.9808 H         1 UNK         0.0837 
    105 H105      -77.7278   27.8554  -78.1517 H         1 UNK         0.0837 
    106 H106      -77.3933   26.1237  -76.3883 H         1 UNK         0.3020 
    107 H107      -75.7132   25.0115  -73.3904 H         1 UNK         0.1245 
    108 H108      -78.1216   26.8636  -73.6323 H         1 UNK         0.0781 
    109 H109      -76.5906   27.3709  -72.9687 H         1 UNK         0.0781 
    110 H110      -75.7717   26.7627  -70.4273 H         1 UNK         0.0836 
    111 H111      -77.1134   26.6004  -69.3170 H         1 UNK         0.0836 
    112 H112      -78.3534   24.6328  -74.6160 H         1 UNK         0.3022 
    113 H113      -77.4106   21.3674  -75.8351 H         1 UNK         0.0747 
    114 H114      -79.5813   20.9034  -74.7321 H         1 UNK         0.0793 
    115 H115      -78.3450   21.1867  -73.5182 H         1 UNK         0.0793 
    116 H116      -79.5168   22.4458  -73.8793 H         1 UNK         0.0793 
    117 H117      -79.7371   22.8994  -76.3323 H         1 UNK         0.3047 
    118 H118      -78.7097   24.7120  -79.1653 H         1 UNK         0.0822 
    119 H119      -80.3126   23.3051  -80.4166 H         1 UNK         0.0807 
    120 H120      -80.2321   22.0549  -79.1739 H         1 UNK         0.0807 
    121 H121      -78.8185   22.4239  -80.1516 H         1 UNK         0.0807 
    122 H122      -81.2973   24.0983  -78.2234 H         1 UNK         0.2946 
    123 H123      -82.1244   26.7750  -77.2336 H         1 UNK         0.1144 
    124 H124      -82.5146   23.9675  -76.0552 H         1 UNK         0.0793 
    125 H125      -83.0563   24.5284  -77.6388 H         1 UNK         0.0793 
    126 H126      -83.7847   25.1758  -76.1904 H         1 UNK         0.0793 
    127 H127      -82.2919   27.3909  -75.1095 H         1 UNK         0.2896 
@<TRIPOS>BOND
     1    1    2 1    
     2    1   67 1    
     3    1   68 1    
     4    1   69 1    
     5    2    3 2    
     6    2    4 am   BACKBONE|DICT|INTERRES
     7    4    5 1    
     8    4   70 1    
     9    5    6 1    
    10    5   65 1    
    11    5   71 1    
    12    6    7 1    
    13    6   72 1    
    14    6   73 1    
    15    7    8 1    
    16    8    9 1    
    17    8   74 1    
    18    8   75 1    
    19    9   10 ar   
    20    9   14 ar   
    21   10   11 ar   
    22   10   76 1    
    23   11   12 ar   
    24   11   48 1    
    25   12   13 ar   
    26   12   77 1    
    27   13   14 ar   
    28   13   15 1    
    29   14   78 1    
    30   15   16 1    
    31   15   79 1    
    32   15   80 1    
    33   16   17 1    
    34   17   18 1    
    35   17   81 1    
    36   17   82 1    
    37   18   19 1    
    38   18   22 1    
    39   18   83 1    
    40   19   20 am   BACKBONE|DICT|INTERRES
    41   19   21 2    
    42   20   84 1    
    43   20   85 1    
    44   22   23 am   BACKBONE|DICT|INTERRES
    45   22   86 1    
    46   23   24 2    
    47   23   25 1    
    48   25   26 1    
    49   25   27 1    
    50   25   87 1    
    51   26   88 1    
    52   26   89 1    
    53   26   90 1    
    54   27   28 am   BACKBONE|DICT|INTERRES
    55   27   91 1    
    56   28   29 2    
    57   28   30 1    
    58   30   31 1    
    59   30   32 1    
    60   30   92 1    
    61   31   93 1    
    62   31   94 1    
    63   31   95 1    
    64   32   33 am   BACKBONE|DICT|INTERRES
    65   32   96 1    
    66   33   34 2    
    67   33   35 1    
    68   35   36 1    
    69   35   37 1    
    70   35   97 1    
    71   36   98 1    
    72   36   99 1    
    73   36  100 1    
    74   37   38 am   BACKBONE|DICT|INTERRES
    75   37  101 1    
    76   38   39 2    
    77   38   40 1    
    78   40   41 1    
    79   40   42 1    
    80   40  102 1    
    81   41  103 1    
    82   41  104 1    
    83   41  105 1    
    84   42   43 am   BACKBONE|DICT|INTERRES
    85   42  106 1    
    86   43   44 2    
    87   43   45 1    
    88   45   46 1    
    89   45   49 1    
    90   45  107 1    
    91   46   47 1    
    92   46  108 1    
    93   46  109 1    
    94   47   48 1    
    95   48  110 1    
    96   48  111 1    
    97   49   50 am   BACKBONE|DICT|INTERRES
    98   49  112 1    
    99   50   51 2    
   100   50   52 1    
   101   52   53 1    
   102   52   54 1    
   103   52  113 1    
   104   53  114 1    
   105   53  115 1    
   106   53  116 1    
   107   54   55 am   BACKBONE|DICT|INTERRES
   108   54  117 1    
   109   55   56 2    
   110   55   57 1    
   111   57   58 1    
   112   57   59 1    
   113   57  118 1    
   114   58  119 1    
   115   58  120 1    
   116   58  121 1    
   117   59   60 am   BACKBONE|DICT|INTERRES
   118   59  122 1    
   119   60   61 2    
   120   60   62 1    
   121   62   63 1    
   122   62   64 1    
   123   62  123 1    
   124   63  124 1    
   125   63  125 1    
   126   63  126 1    
   127   64   65 am   BACKBONE|DICT|INTERRES
   128   64  127 1    
   129   65   66 2    
@<TRIPOS>SUBSTRUCTURE
     1 UNK         1 GROUP             0       ****    0 ROOT    
