@<TRIPOS>MOLECULE
3R135
127   129    1
SMALL
USER_CHARGES


@<TRIPOS>ATOM
      1 CA        -81.2518   21.7944  -72.3838 C.3       0 UNK        -0.1998 
      2 C         -81.7794   23.1686  -72.7653 C.2       0 UNK         0.4909 
      3 O         -82.4918   23.2977  -73.7618 O.2       0 UNK        -0.5240 
      4 N         -81.4241   24.1983  -71.9865 N.am      1 UNK        -0.4739 
      5 CA        -81.7533   25.6103  -72.2131 C.3       1 UNK         0.0864 
      6 C6        -81.2975   26.5189  -71.0362 C.3       11 UNK        -0.0881 
      7 S7        -79.6540   26.1162  -70.3330 S.3       11 UNK        -0.2682 
      8 C8        -79.0254   27.7524  -69.8453 C.3       11 UNK         0.0289 
      9 C9        -78.1246   28.3566  -70.9122 C.ar      11 UNK        -0.0687 
     10 C10       -78.6525   29.1992  -71.8953 C.ar      11 UNK        -0.0823 
     11 C11       -77.8172   29.7814  -72.8547 C.ar      11 UNK        -0.0830 
     12 C12       -76.4448   29.5183  -72.8181 C.ar      11 UNK        -0.1021 
     13 C13       -75.9065   28.6661  -71.8514 C.ar      11 UNK        -0.0753 
     14 C14       -76.7517   28.0883  -70.9000 C.ar      11 UNK        -0.0933 
     15 C15       -74.4202   28.3415  -71.8583 C.3       11 UNK         0.0166 
     16 S16       -73.4752   29.3463  -70.6736 S.3       11 UNK        -0.2615 
     17 C17       -73.4229   30.9647  -71.5222 C.3       11 UNK        -0.0865 
     18 CA        -72.0338   31.3651  -72.0862 C.3       10 UNK         0.0862 
     19 C         -71.0191   31.7380  -70.9670 C.2       10 UNK         0.5551 
     20 N         -71.2028   32.8834  -70.3239 N.am      10 UNK        -0.7319 
     21 O         -70.0830   30.9994  -70.6638 O.2       10 UNK        -0.5018 
     22 N         -71.4992   30.3714  -73.0338 N.am      10 UNK        -0.4509 
     23 C         -70.5965   30.6658  -73.9795 C.2       10 UNK         0.4899 
     24 O         -70.2614   31.8176  -74.2609 O.2       10 UNK        -0.4839 
     25 CA        -69.9174   29.5072  -74.7315 C.3       9 UNK         0.0222 
     26 CB        -68.4646   29.3509  -74.2490 C.3       9 UNK        -0.1966 
     27 N         -70.5913   28.2105  -74.6139 N.am      9 UNK        -0.4218 
     28 C         -71.6056   27.8069  -75.3892 C.2       9 UNK         0.5020 
     29 O         -72.1915   28.5303  -76.1982 O.2       9 UNK        -0.5274 
     30 CA        -72.0066   26.3331  -75.2535 C.3       8 UNK         0.0270 
     31 CB        -72.9029   26.0910  -74.0286 C.3       8 UNK        -0.1976 
     32 N         -72.6937   25.8954  -76.4681 N.am      8 UNK        -0.4313 
     33 C         -72.6780   24.6438  -76.9422 C.2       8 UNK         0.5041 
     34 O         -72.0926   23.7153  -76.3797 O.2       8 UNK        -0.5577 
     35 CA        -73.4224   24.3825  -78.2625 C.3       7 UNK         0.0284 
     36 CB        -73.6270   22.8812  -78.5536 C.3       7 UNK        -0.1958 
     37 N         -74.7164   25.0662  -78.2955 N.am      7 UNK        -0.4454 
     38 C         -75.2830   25.5534  -79.4092 C.2       7 UNK         0.5089 
     39 O         -74.7350   25.5225  -80.5123 O.2       7 UNK        -0.5125 
     40 CA        -76.6989   26.1618  -79.3174 C.3       6 UNK         0.0408 
     41 CB        -77.7275   25.2064  -79.9444 C.3       6 UNK        -0.1791 
     42 N         -77.1474   26.5025  -77.9675 N.am      6 UNK        -0.4762 
     43 C         -76.5860   27.4140  -77.1618 C.2       6 UNK         0.5007 
     44 O         -75.6186   28.1059  -77.4794 O.2       6 UNK        -0.5032 
     45 CA        -77.1848   27.5293  -75.7446 C.3       5 UNK         0.0783 
     46 C46       -78.3830   28.5160  -75.7313 C.3       11 UNK        -0.0857 
     47 S47       -77.8615   30.2588  -75.6157 S.3       11 UNK        -0.2512 
     48 C48       -78.4009   30.6962  -73.9267 C.3       11 UNK         0.0225 
     49 N         -77.5590   26.2323  -75.1622 N.am      5 UNK        -0.4615 
     50 C         -76.7888   25.1370  -75.0712 C.2       4 UNK         0.5053 
     51 O         -75.6349   25.0695  -75.4865 O.2       4 UNK        -0.5105 
     52 CA        -77.4428   23.8805  -74.4806 C.3       4 UNK         0.0263 
     53 CB        -77.5393   23.9667  -72.9485 C.3       4 UNK        -0.1981 
     54 N         -78.7681   23.6775  -75.0659 N.am      4 UNK        -0.4224 
     55 C         -78.9739   23.1487  -76.2822 C.2       3 UNK         0.4895 
     56 O         -78.0847   22.6468  -76.9697 O.2       3 UNK        -0.5091 
     57 CA        -80.4039   23.2077  -76.8472 C.3       3 UNK         0.0250 
     58 CB        -81.1481   21.8880  -76.5899 C.3       3 UNK        -0.1996 
     59 N         -81.1813   24.3308  -76.3155 N.am      3 UNK        -0.4254 
     60 C         -80.9636   25.6123  -76.6506 C.2       2 UNK         0.5004 
     61 O         -80.1130   25.9675  -77.4668 O.2       2 UNK        -0.5226 
     62 CA        -81.7970   26.6837  -75.9215 C.3       2 UNK         0.0269 
     63 CB        -83.0938   26.9711  -76.6939 C.3       2 UNK        -0.1926 
     64 N         -82.1220   26.3395  -74.5325 N.am      2 UNK        -0.4687 
     65 C         -81.2162   26.0894  -73.5761 C.2       1 UNK         0.5165 
     66 O         -80.0022   26.1569  -73.7640 O.2       1 UNK        -0.5079 
     67 H67       -82.0685   21.0738  -72.3525 H         1 UNK         0.0900 
     68 H68       -80.5232   21.4544  -73.1191 H         1 UNK         0.0900 
     69 H69       -80.7697   21.8017  -71.4064 H         1 UNK         0.0900 
     70 H70       -80.8087   24.0389  -71.2006 H         1 UNK         0.2959 
     71 H71       -82.8430   25.6714  -72.2561 H         1 UNK         0.1079 
     72 H72       -82.0165   26.4250  -70.2209 H         1 UNK         0.0837 
     73 H73       -81.3311   27.5705  -71.3268 H         1 UNK         0.0837 
     74 H74       -79.8538   28.4238  -69.6140 H         1 UNK         0.0685 
     75 H75       -78.4641   27.6424  -68.9162 H         1 UNK         0.0685 
     76 H76       -79.7142   29.4026  -71.9098 H         1 UNK         0.1434 
     77 H77       -75.7996   29.9615  -73.5639 H         1 UNK         0.1329 
     78 H78       -76.3395   27.4297  -70.1478 H         1 UNK         0.1335 
     79 H79       -74.2797   27.2871  -71.6162 H         1 UNK         0.0680 
     80 H80       -74.0059   28.4916  -72.8555 H         1 UNK         0.0680 
     81 H81       -74.1435   30.9760  -72.3378 H         1 UNK         0.1032 
     82 H82       -73.7843   31.7218  -70.8240 H         1 UNK         0.1032 
     83 H83       -72.1982   32.2842  -72.6532 H         1 UNK         0.0461 
     84 H84       -71.9626   33.5019  -70.5617 H         1 UNK         0.3453 
     85 H85       -70.5610   33.1402  -69.5900 H         1 UNK         0.3453 
     86 H86       -71.6895   29.4043  -72.8211 H         1 UNK         0.2984 
     87 H87       -69.8872   29.7863  -75.7873 H         1 UNK         0.0554 
     88 H88       -67.9102   30.2833  -74.3668 H         1 UNK         0.0847 
     89 H89       -67.9337   28.5894  -74.8207 H         1 UNK         0.0847 
     90 H90       -68.4160   29.0770  -73.1941 H         1 UNK         0.0847 
     91 H91       -70.1828   27.5493  -73.9680 H         1 UNK         0.3141 
     92 H92       -71.0862   25.7560  -75.1385 H         1 UNK         0.0743 
     93 H93       -73.8633   26.5940  -74.1380 H         1 UNK         0.0784 
     94 H94       -73.1060   25.0283  -73.8942 H         1 UNK         0.0784 
     95 H95       -72.4320   26.4479  -73.1124 H         1 UNK         0.0784 
     96 H96       -73.1551   26.6344  -76.9865 H         1 UNK         0.3213 
     97 H97       -72.7779   24.7923  -79.0433 H         1 UNK         0.0855 
     98 H98       -74.2521   22.4105  -77.7937 H         1 UNK         0.0814 
     99 H99       -72.6750   22.3492  -78.5733 H         1 UNK         0.0814 
    100 H100      -74.1013   22.7238  -79.5224 H         1 UNK         0.0814 
    101 H101      -75.1997   25.1436  -77.4027 H         1 UNK         0.3105 
    102 H102      -76.6903   27.0844  -79.9009 H         1 UNK         0.0547 
    103 H103      -77.4562   24.9540  -80.9704 H         1 UNK         0.0837 
    104 H104      -77.7991   24.2719  -79.3860 H         1 UNK         0.0837 
    105 H105      -78.7207   25.6550  -79.9747 H         1 UNK         0.0837 
    106 H106      -77.9789   26.0263  -77.6339 H         1 UNK         0.3020 
    107 H107      -76.3935   27.9178  -75.1016 H         1 UNK         0.1245 
    108 H108      -79.0364   28.3074  -74.8843 H         1 UNK         0.0781 
    109 H109      -79.0117   28.3954  -76.6154 H         1 UNK         0.0781 
    110 H110      -79.4916   30.6819  -73.8964 H         1 UNK         0.0836 
    111 H111      -78.1004   31.7231  -73.7151 H         1 UNK         0.0836 
    112 H112      -78.4829   26.1937  -74.7356 H         1 UNK         0.3022 
    113 H113      -76.8126   23.0229  -74.7269 H         1 UNK         0.0747 
    114 H114      -78.0140   23.0798  -72.5290 H         1 UNK         0.0793 
    115 H115      -76.5463   24.0452  -72.5042 H         1 UNK         0.0793 
    116 H116      -78.1057   24.8372  -72.6191 H         1 UNK         0.0793 
    117 H117      -79.5410   24.1297  -74.5964 H         1 UNK         0.3047 
    118 H118      -80.3198   23.3391  -77.9285 H         1 UNK         0.0822 
    119 H119      -82.1490   21.9056  -77.0215 H         1 UNK         0.0807 
    120 H120      -81.2458   21.6758  -75.5257 H         1 UNK         0.0807 
    121 H121      -80.6164   21.0485  -77.0399 H         1 UNK         0.0807 
    122 H122      -81.8694   24.1163  -75.6004 H         1 UNK         0.2946 
    123 H123      -81.2044   27.5997  -75.9030 H         1 UNK         0.1144 
    124 H124      -83.6489   27.7956  -76.2460 H         1 UNK         0.0793 
    125 H125      -83.7491   26.0996  -76.7227 H         1 UNK         0.0793 
    126 H126      -82.8786   27.2515  -77.7262 H         1 UNK         0.0793 
    127 H127      -83.1019   26.2200  -74.3173 H         1 UNK         0.2896 
@<TRIPOS>BOND
     1    1    2 1    
     2    1   67 1    
     3    1   68 1    
     4    1   69 1    
     5    2    3 2    
     6    2    4 am   BACKBONE|DICT|INTERRES
     7    4    5 1    
     8    4   70 1    
     9    5    6 1    
    10    5   65 1    
    11    5   71 1    
    12    6    7 1    
    13    6   72 1    
    14    6   73 1    
    15    7    8 1    
    16    8    9 1    
    17    8   74 1    
    18    8   75 1    
    19    9   10 ar   
    20    9   14 ar   
    21   10   11 ar   
    22   10   76 1    
    23   11   12 ar   
    24   11   48 1    
    25   12   13 ar   
    26   12   77 1    
    27   13   14 ar   
    28   13   15 1    
    29   14   78 1    
    30   15   16 1    
    31   15   79 1    
    32   15   80 1    
    33   16   17 1    
    34   17   18 1    
    35   17   81 1    
    36   17   82 1    
    37   18   19 1    
    38   18   22 1    
    39   18   83 1    
    40   19   20 am   BACKBONE|DICT|INTERRES
    41   19   21 2    
    42   20   84 1    
    43   20   85 1    
    44   22   23 am   BACKBONE|DICT|INTERRES
    45   22   86 1    
    46   23   24 2    
    47   23   25 1    
    48   25   26 1    
    49   25   27 1    
    50   25   87 1    
    51   26   88 1    
    52   26   89 1    
    53   26   90 1    
    54   27   28 am   BACKBONE|DICT|INTERRES
    55   27   91 1    
    56   28   29 2    
    57   28   30 1    
    58   30   31 1    
    59   30   32 1    
    60   30   92 1    
    61   31   93 1    
    62   31   94 1    
    63   31   95 1    
    64   32   33 am   BACKBONE|DICT|INTERRES
    65   32   96 1    
    66   33   34 2    
    67   33   35 1    
    68   35   36 1    
    69   35   37 1    
    70   35   97 1    
    71   36   98 1    
    72   36   99 1    
    73   36  100 1    
    74   37   38 am   BACKBONE|DICT|INTERRES
    75   37  101 1    
    76   38   39 2    
    77   38   40 1    
    78   40   41 1    
    79   40   42 1    
    80   40  102 1    
    81   41  103 1    
    82   41  104 1    
    83   41  105 1    
    84   42   43 am   BACKBONE|DICT|INTERRES
    85   42  106 1    
    86   43   44 2    
    87   43   45 1    
    88   45   46 1    
    89   45   49 1    
    90   45  107 1    
    91   46   47 1    
    92   46  108 1    
    93   46  109 1    
    94   47   48 1    
    95   48  110 1    
    96   48  111 1    
    97   49   50 am   BACKBONE|DICT|INTERRES
    98   49  112 1    
    99   50   51 2    
   100   50   52 1    
   101   52   53 1    
   102   52   54 1    
   103   52  113 1    
   104   53  114 1    
   105   53  115 1    
   106   53  116 1    
   107   54   55 am   BACKBONE|DICT|INTERRES
   108   54  117 1    
   109   55   56 2    
   110   55   57 1    
   111   57   58 1    
   112   57   59 1    
   113   57  118 1    
   114   58  119 1    
   115   58  120 1    
   116   58  121 1    
   117   59   60 am   BACKBONE|DICT|INTERRES
   118   59  122 1    
   119   60   61 2    
   120   60   62 1    
   121   62   63 1    
   122   62   64 1    
   123   62  123 1    
   124   63  124 1    
   125   63  125 1    
   126   63  126 1    
   127   64   65 am   BACKBONE|DICT|INTERRES
   128   64  127 1    
   129   65   66 2    
@<TRIPOS>SUBSTRUCTURE
     1 UNK         1 GROUP             0       ****    0 ROOT    
