@<TRIPOS>MOLECULE
3R135
127   129    1
SMALL
USER_CHARGES


@<TRIPOS>ATOM
      1 CA        -83.5343   25.2268  -74.5792 C.3       0 UNK        -0.1998 
      2 C         -83.2056   24.7919  -73.1533 C.2       0 UNK         0.4909 
      3 O         -83.6782   23.7430  -72.7201 O.2       0 UNK        -0.5240 
      4 N         -82.4199   25.5555  -72.3812 N.am      1 UNK        -0.4739 
      5 CA        -81.7408   26.8015  -72.7564 C.3       1 UNK         0.0864 
      6 C6        -81.3609   27.6109  -71.4910 C.3       11 UNK        -0.0881 
      7 S7        -81.0598   29.3803  -71.8371 S.3       11 UNK        -0.2682 
      8 C8        -79.5589   29.7173  -70.8611 C.3       11 UNK         0.0289 
      9 C9        -78.3056   29.1005  -71.4689 C.ar      11 UNK        -0.0687 
     10 C10       -77.8077   27.8895  -70.9788 C.ar      11 UNK        -0.0823 
     11 C11       -76.6342   27.3395  -71.5008 C.ar      11 UNK        -0.0830 
     12 C12       -75.9461   28.0163  -72.5111 C.ar      11 UNK        -0.1021 
     13 C13       -76.4319   29.2274  -73.0110 C.ar      11 UNK        -0.0753 
     14 C14       -77.6157   29.7622  -72.4905 C.ar      11 UNK        -0.0933 
     15 C15       -75.6696   29.9570  -74.1058 C.3       11 UNK         0.0166 
     16 S16       -74.7409   31.3613  -73.4234 S.3       11 UNK        -0.2615 
     17 C17       -73.7459   31.8763  -74.8688 C.3       11 UNK        -0.0865 
     18 CA        -72.2495   32.1103  -74.5309 C.3       10 UNK         0.0862 
     19 C         -72.0420   33.3973  -73.6756 C.2       10 UNK         0.5551 
     20 N         -71.5771   33.3063  -72.4353 N.am      10 UNK        -0.7319 
     21 O         -72.2986   34.4990  -74.1556 O.2       10 UNK        -0.5018 
     22 N         -71.6170   30.8859  -74.0135 N.am      10 UNK        -0.4509 
     23 C         -70.3014   30.6738  -73.9010 C.2       10 UNK         0.4899 
     24 O         -69.4426   31.4839  -74.2502 O.2       10 UNK        -0.4839 
     25 CA        -69.8597   29.3237  -73.3099 C.3       9 UNK         0.0222 
     26 CB        -70.2157   29.2123  -71.8130 C.3       9 UNK        -0.1966 
     27 N         -70.3305   28.1638  -74.0795 N.am      9 UNK        -0.4218 
     28 C         -71.5849   27.7194  -74.2394 C.2       9 UNK         0.5020 
     29 O         -72.5737   28.2066  -73.6863 O.2       9 UNK        -0.5274 
     30 CA        -71.7502   26.4986  -75.1600 C.3       8 UNK         0.0270 
     31 CB        -71.6990   25.2019  -74.3370 C.3       8 UNK        -0.1976 
     32 N         -72.9990   26.5397  -75.9248 N.am      8 UNK        -0.4313 
     33 C         -73.3077   27.4710  -76.8399 C.2       8 UNK         0.5041 
     34 O         -72.5416   28.3797  -77.1679 O.2       8 UNK        -0.5577 
     35 CA        -74.7022   27.3794  -77.4961 C.3       7 UNK         0.0284 
     36 CB        -74.7606   28.0689  -78.8751 C.3       7 UNK        -0.1958 
     37 N         -75.2413   26.0170  -77.5793 N.am      7 UNK        -0.4454 
     38 C         -74.7125   24.9505  -78.1987 C.2       7 UNK         0.5089 
     39 O         -73.6570   24.9729  -78.8339 O.2       7 UNK        -0.5125 
     40 CA        -75.5070   23.6340  -78.0596 C.3       6 UNK         0.0408 
     41 CB        -74.6789   22.3865  -78.4325 C.3       6 UNK        -0.1791 
     42 N         -76.1196   23.4804  -76.7327 N.am      6 UNK        -0.4762 
     43 C         -75.4932   23.4309  -75.5458 C.2       6 UNK         0.5007 
     44 O         -74.2686   23.4439  -75.4277 O.2       6 UNK        -0.5032 
     45 CA        -76.3609   23.4127  -74.2675 C.3       5 UNK         0.0783 
     46 C46       -76.1074   24.6898  -73.4319 C.3       11 UNK        -0.0857 
     47 S47       -76.8911   24.6027  -71.7892 S.3       11 UNK        -0.2512 
     48 C48       -76.1063   26.0195  -70.9611 C.3       11 UNK         0.0225 
     49 N         -77.7896   23.2416  -74.5514 N.am      5 UNK        -0.4615 
     50 C         -78.3798   22.0815  -74.8633 C.2       4 UNK         0.5053 
     51 O         -77.7914   21.0014  -74.9065 O.2       4 UNK        -0.5105 
     52 CA        -79.8725   22.1484  -75.2199 C.3       4 UNK         0.0263 
     53 CB        -80.7402   22.0275  -73.9574 C.3       4 UNK        -0.1981 
     54 N         -80.1987   23.3875  -75.9322 N.am      4 UNK        -0.4224 
     55 C         -79.9596   23.5835  -77.2381 C.2       3 UNK         0.4895 
     56 O         -79.4970   22.7199  -77.9831 O.2       3 UNK        -0.5091 
     57 CA        -80.2617   24.9780  -77.8173 C.3       3 UNK         0.0250 
     58 CB        -81.6885   25.0279  -78.3871 C.3       3 UNK        -0.1996 
     59 N         -80.0797   26.0694  -76.8570 N.am      3 UNK        -0.4254 
     60 C         -78.9014   26.4264  -76.3268 C.2       2 UNK         0.5004 
     61 O         -77.8331   25.8854  -76.6016 O.2       2 UNK        -0.5226 
     62 CA        -78.9175   27.5486  -75.2801 C.3       2 UNK         0.0269 
     63 CB        -78.7858   28.9153  -75.9696 C.3       2 UNK        -0.1926 
     64 N         -80.1015   27.5504  -74.4154 N.am      2 UNK        -0.4687 
     65 C         -80.5160   26.5259  -73.6571 C.2       1 UNK         0.5165 
     66 O         -79.9910   25.4090  -73.6734 O.2       1 UNK        -0.5079 
     67 H67       -82.6357   25.2806  -75.1897 H         1 UNK         0.0900 
     68 H68       -84.2069   24.5092  -75.0491 H         1 UNK         0.0900 
     69 H69       -84.0309   26.1964  -74.5888 H         1 UNK         0.0900 
     70 H70       -82.1975   25.2145  -71.4573 H         1 UNK         0.2959 
     71 H71       -82.4493   27.4006  -73.3316 H         1 UNK         0.1079 
     72 H72       -80.5093   27.1589  -70.9825 H         1 UNK         0.0837 
     73 H73       -82.1807   27.5771  -70.7712 H         1 UNK         0.0837 
     74 H74       -79.7051   29.3644  -69.8390 H         1 UNK         0.0685 
     75 H75       -79.4281   30.7981  -70.7889 H         1 UNK         0.0685 
     76 H76       -78.3278   27.3738  -70.1835 H         1 UNK         0.1434 
     77 H77       -75.0292   27.6015  -72.9075 H         1 UNK         0.1329 
     78 H78       -77.9894   30.7040  -72.8684 H         1 UNK         0.1335 
     79 H79       -74.9807   29.2740  -74.6054 H         1 UNK         0.0680 
     80 H80       -76.3606   30.3183  -74.8679 H         1 UNK         0.0680 
     81 H81       -74.1912   32.7762  -75.2976 H         1 UNK         0.1032 
     82 H82       -73.8181   31.1177  -75.6500 H         1 UNK         0.1032 
     83 H83       -71.7507   32.3220  -75.4787 H         1 UNK         0.0461 
     84 H84       -71.3749   32.4042  -72.0365 H         1 UNK         0.3453 
     85 H85       -71.4421   34.1444  -71.8924 H         1 UNK         0.3453 
     86 H86       -72.2429   30.1363  -73.7312 H         1 UNK         0.2984 
     87 H87       -68.7711   29.2937  -73.3802 H         1 UNK         0.0554 
     88 H88       -69.7703   30.0313  -71.2470 H         1 UNK         0.0847 
     89 H89       -69.8396   28.2828  -71.3858 H         1 UNK         0.0847 
     90 H90       -71.2913   29.2476  -71.6375 H         1 UNK         0.0847 
     91 H91       -69.6052   27.6859  -74.5970 H         1 UNK         0.3141 
     92 H92       -70.9276   26.4872  -75.8781 H         1 UNK         0.0743 
     93 H93       -70.7778   25.1401  -73.7561 H         1 UNK         0.0784 
     94 H94       -71.7320   24.3226  -74.9807 H         1 UNK         0.0784 
     95 H95       -72.5315   25.1367  -73.6354 H         1 UNK         0.0784 
     96 H96       -73.6687   25.8071  -75.7361 H         1 UNK         0.3213 
     97 H97       -75.3754   27.9231  -76.8317 H         1 UNK         0.0855 
     98 H98       -74.0696   27.6112  -79.5836 H         1 UNK         0.0814 
     99 H99       -74.4964   29.1244  -78.7985 H         1 UNK         0.0814 
    100 H100      -75.7624   28.0184  -79.3014 H         1 UNK         0.0814 
    101 H101      -76.1478   25.8822  -77.1281 H         1 UNK         0.3105 
    102 H102      -76.3349   23.7040  -78.7666 H         1 UNK         0.0547 
    103 H103      -75.2678   21.4750  -78.3317 H         1 UNK         0.0837 
    104 H104      -73.7924   22.2852  -77.8060 H         1 UNK         0.0837 
    105 H105      -74.3392   22.4389  -79.4675 H         1 UNK         0.0837 
    106 H106      -77.1295   23.5302  -76.7138 H         1 UNK         0.3020 
    107 H107      -76.0221   22.5528  -73.6849 H         1 UNK         0.1245 
    108 H108      -76.4818   25.5704  -73.9565 H         1 UNK         0.0781 
    109 H109      -75.0379   24.8488  -73.2811 H         1 UNK         0.0781 
    110 H110      -75.0223   25.9620  -71.0730 H         1 UNK         0.0836 
    111 H111      -76.3031   25.9547  -69.8900 H         1 UNK         0.0836 
    112 H112      -78.3627   24.0729  -74.4739 H         1 UNK         0.3022 
    113 H113      -80.1009   21.2984  -75.8669 H         1 UNK         0.0747 
    114 H114      -81.8020   22.0387  -74.2036 H         1 UNK         0.0793 
    115 H115      -80.5391   21.0906  -73.4364 H         1 UNK         0.0793 
    116 H116      -80.5507   22.8371  -73.2518 H         1 UNK         0.0793 
    117 H117      -80.4994   24.1684  -75.3628 H         1 UNK         0.3047 
    118 H118      -79.5622   25.1443  -78.6397 H         1 UNK         0.0822 
    119 H119      -81.8904   25.9839  -78.8706 H         1 UNK         0.0807 
    120 H120      -82.4424   24.8750  -77.6145 H         1 UNK         0.0807 
    121 H121      -81.8337   24.2510  -79.1393 H         1 UNK         0.0807 
    122 H122      -80.9020   26.5871  -76.5842 H         1 UNK         0.2946 
    123 H123      -78.0498   27.4003  -74.6342 H         1 UNK         0.1144 
    124 H124      -78.7373   29.7255  -75.2427 H         1 UNK         0.0793 
    125 H125      -79.6271   29.1156  -76.6343 H         1 UNK         0.0793 
    126 H126      -77.8766   28.9635  -76.5707 H         1 UNK         0.0793 
    127 H127      -80.5736   28.4381  -74.3114 H         1 UNK         0.2896 
@<TRIPOS>BOND
     1    1    2 1    
     2    1   67 1    
     3    1   68 1    
     4    1   69 1    
     5    2    3 2    
     6    2    4 am   BACKBONE|DICT|INTERRES
     7    4    5 1    
     8    4   70 1    
     9    5    6 1    
    10    5   65 1    
    11    5   71 1    
    12    6    7 1    
    13    6   72 1    
    14    6   73 1    
    15    7    8 1    
    16    8    9 1    
    17    8   74 1    
    18    8   75 1    
    19    9   10 ar   
    20    9   14 ar   
    21   10   11 ar   
    22   10   76 1    
    23   11   12 ar   
    24   11   48 1    
    25   12   13 ar   
    26   12   77 1    
    27   13   14 ar   
    28   13   15 1    
    29   14   78 1    
    30   15   16 1    
    31   15   79 1    
    32   15   80 1    
    33   16   17 1    
    34   17   18 1    
    35   17   81 1    
    36   17   82 1    
    37   18   19 1    
    38   18   22 1    
    39   18   83 1    
    40   19   20 am   BACKBONE|DICT|INTERRES
    41   19   21 2    
    42   20   84 1    
    43   20   85 1    
    44   22   23 am   BACKBONE|DICT|INTERRES
    45   22   86 1    
    46   23   24 2    
    47   23   25 1    
    48   25   26 1    
    49   25   27 1    
    50   25   87 1    
    51   26   88 1    
    52   26   89 1    
    53   26   90 1    
    54   27   28 am   BACKBONE|DICT|INTERRES
    55   27   91 1    
    56   28   29 2    
    57   28   30 1    
    58   30   31 1    
    59   30   32 1    
    60   30   92 1    
    61   31   93 1    
    62   31   94 1    
    63   31   95 1    
    64   32   33 am   BACKBONE|DICT|INTERRES
    65   32   96 1    
    66   33   34 2    
    67   33   35 1    
    68   35   36 1    
    69   35   37 1    
    70   35   97 1    
    71   36   98 1    
    72   36   99 1    
    73   36  100 1    
    74   37   38 am   BACKBONE|DICT|INTERRES
    75   37  101 1    
    76   38   39 2    
    77   38   40 1    
    78   40   41 1    
    79   40   42 1    
    80   40  102 1    
    81   41  103 1    
    82   41  104 1    
    83   41  105 1    
    84   42   43 am   BACKBONE|DICT|INTERRES
    85   42  106 1    
    86   43   44 2    
    87   43   45 1    
    88   45   46 1    
    89   45   49 1    
    90   45  107 1    
    91   46   47 1    
    92   46  108 1    
    93   46  109 1    
    94   47   48 1    
    95   48  110 1    
    96   48  111 1    
    97   49   50 am   BACKBONE|DICT|INTERRES
    98   49  112 1    
    99   50   51 2    
   100   50   52 1    
   101   52   53 1    
   102   52   54 1    
   103   52  113 1    
   104   53  114 1    
   105   53  115 1    
   106   53  116 1    
   107   54   55 am   BACKBONE|DICT|INTERRES
   108   54  117 1    
   109   55   56 2    
   110   55   57 1    
   111   57   58 1    
   112   57   59 1    
   113   57  118 1    
   114   58  119 1    
   115   58  120 1    
   116   58  121 1    
   117   59   60 am   BACKBONE|DICT|INTERRES
   118   59  122 1    
   119   60   61 2    
   120   60   62 1    
   121   62   63 1    
   122   62   64 1    
   123   62  123 1    
   124   63  124 1    
   125   63  125 1    
   126   63  126 1    
   127   64   65 am   BACKBONE|DICT|INTERRES
   128   64  127 1    
   129   65   66 2    
@<TRIPOS>SUBSTRUCTURE
     1 UNK         1 GROUP             0       ****    0 ROOT    
