@<TRIPOS>MOLECULE
3R135
127   129    1
SMALL
USER_CHARGES


@<TRIPOS>ATOM
      1 CA        -76.0748   22.5597  -70.3352 C.3       0 UNK        -0.1998 
      2 C         -77.3928   23.2153  -70.7191 C.2       0 UNK         0.4909 
      3 O         -78.3972   23.0208  -70.0346 O.2       0 UNK        -0.5240 
      4 N         -77.3959   23.9901  -71.8122 N.am      1 UNK        -0.4739 
      5 CA        -78.5750   24.6881  -72.3421 C.3       1 UNK         0.0864 
      6 C6        -78.1318   25.8341  -73.2913 C.3       11 UNK        -0.0881 
      7 S7        -79.4802   26.9435  -73.8174 S.3       11 UNK        -0.2682 
      8 C8        -79.5624   28.1492  -72.4583 C.3       11 UNK         0.0289 
      9 C9        -78.3986   29.1295  -72.4711 C.ar      11 UNK        -0.0687 
     10 C10       -78.2745   30.0646  -73.5047 C.ar      11 UNK        -0.0823 
     11 C11       -77.2297   30.9937  -73.4983 C.ar      11 UNK        -0.0830 
     12 C12       -76.3220   30.9975  -72.4359 C.ar      11 UNK        -0.1021 
     13 C13       -76.4357   30.0707  -71.3960 C.ar      11 UNK        -0.0753 
     14 C14       -77.4710   29.1320  -71.4245 C.ar      11 UNK        -0.0933 
     15 C15       -75.4573   30.0978  -70.2308 C.3       11 UNK         0.0166 
     16 S16       -73.9525   29.1526  -70.6165 S.3       11 UNK        -0.2615 
     17 C17       -72.6506   30.4307  -70.4661 C.3       11 UNK        -0.0865 
     18 CA        -72.5986   31.4533  -71.6436 C.3       10 UNK         0.0862 
     19 C         -71.4430   32.4876  -71.4833 C.2       10 UNK         0.5551 
     20 N         -70.8284   32.9615  -72.5601 N.am      10 UNK        -0.7319 
     21 O         -71.1191   32.8927  -70.3694 O.2       10 UNK        -0.5018 
     22 N         -72.6923   30.8192  -72.9719 N.am      10 UNK        -0.4509 
     23 C         -71.8282   29.9313  -73.4730 C.2       10 UNK         0.4899 
     24 O         -70.7704   29.6005  -72.9326 O.2       10 UNK        -0.4839 
     25 CA        -72.2393   29.2596  -74.7843 C.3       9 UNK         0.0222 
     26 CB        -71.1951   29.4966  -75.8885 C.3       9 UNK        -0.1966 
     27 N         -72.3483   27.8310  -74.5068 N.am      9 UNK        -0.4218 
     28 C         -73.4958   27.1491  -74.4654 C.2       9 UNK         0.5020 
     29 O         -74.5984   27.6116  -74.7659 O.2       9 UNK        -0.5274 
     30 CA        -73.4108   25.6921  -74.0092 C.3       8 UNK         0.0270 
     31 CB        -73.8058   25.5477  -72.5286 C.3       8 UNK        -0.1976 
     32 N         -74.3349   24.9514  -74.8529 N.am      8 UNK        -0.4313 
     33 C         -74.1949   23.6873  -75.2598 C.2       8 UNK         0.5041 
     34 O         -73.3205   22.9235  -74.8494 O.2       8 UNK        -0.5577 
     35 CA        -75.1993   23.1958  -76.3160 C.3       7 UNK         0.0284 
     36 CB        -76.3748   22.4822  -75.6385 C.3       7 UNK        -0.1958 
     37 N         -75.7036   24.2819  -77.1669 N.am      7 UNK        -0.4454 
     38 C         -74.9756   24.8638  -78.1332 C.2       7 UNK         0.5089 
     39 O         -73.8386   24.5050  -78.4407 O.2       7 UNK        -0.5125 
     40 CA        -75.6001   26.0572  -78.8653 C.3       6 UNK         0.0408 
     41 CB        -76.5100   25.5778  -80.0074 C.3       6 UNK        -0.1791 
     42 N         -76.3756   26.8938  -77.9506 N.am      6 UNK        -0.4762 
     43 C         -76.1117   28.1729  -77.6463 C.2       6 UNK         0.5007 
     44 O         -75.1384   28.7859  -78.0892 O.2       6 UNK        -0.5032 
     45 CA        -77.1181   28.8876  -76.7069 C.3       5 UNK         0.0783 
     46 C46       -77.2251   30.4192  -76.9577 C.3       11 UNK        -0.0857 
     47 S47       -76.0343   31.3890  -75.9698 S.3       11 UNK        -0.2512 
     48 C48       -77.0866   32.0135  -74.6190 C.3       11 UNK         0.0225 
     49 N         -78.4362   28.2390  -76.6819 N.am      5 UNK        -0.4615 
     50 C         -79.2912   28.1109  -77.7056 C.2       4 UNK         0.5053 
     51 O         -79.0856   28.5420  -78.8412 O.2       4 UNK        -0.5105 
     52 CA        -80.5962   27.3561  -77.3961 C.3       4 UNK         0.0263 
     53 CB        -81.7832   27.9509  -78.1758 C.3       4 UNK        -0.1981 
     54 N         -80.5534   25.9080  -77.6397 N.am      4 UNK        -0.4224 
     55 C         -79.6100   25.0234  -77.2842 C.2       3 UNK         0.4895 
     56 O         -78.4984   25.2975  -76.8173 O.2       3 UNK        -0.5091 
     57 CA        -79.9833   23.5489  -77.4452 C.3       3 UNK         0.0250 
     58 CB        -79.1774   22.8801  -78.5714 C.3       3 UNK        -0.1996 
     59 N         -79.6834   22.9162  -76.1684 N.am      3 UNK        -0.4254 
     60 C         -80.3867   21.9494  -75.5703 C.2       2 UNK         0.5004 
     61 O         -81.3546   21.3871  -76.0837 O.2       2 UNK        -0.5226 
     62 CA        -79.9379   21.5394  -74.1530 C.3       2 UNK         0.0269 
     63 CB        -79.1566   20.2158  -74.1962 C.3       2 UNK        -0.1926 
     64 N         -79.1227   22.5561  -73.4735 N.am      2 UNK        -0.4687 
     65 C         -79.5951   23.7164  -72.9902 C.2       1 UNK         0.5165 
     66 O         -80.7885   24.0181  -73.0267 O.2       1 UNK        -0.5079 
     67 H67       -76.2016   21.4803  -70.2569 H         1 UNK         0.0900 
     68 H68       -75.2918   22.7551  -71.0674 H         1 UNK         0.0900 
     69 H69       -75.7377   22.9341  -69.3690 H         1 UNK         0.0900 
     70 H70       -76.5349   24.1254  -72.3214 H         1 UNK         0.2959 
     71 H71       -79.0879   25.1444  -71.4924 H         1 UNK         0.1079 
     72 H72       -77.3626   26.4420  -72.8118 H         1 UNK         0.0837 
     73 H73       -77.6638   25.4271  -74.1886 H         1 UNK         0.0837 
     74 H74       -79.6203   27.6181  -71.5072 H         1 UNK         0.0685 
     75 H75       -80.4937   28.7100  -72.5488 H         1 UNK         0.0685 
     76 H76       -78.9935   30.0679  -74.3123 H         1 UNK         0.1434 
     77 H77       -75.5304   31.7308  -72.4183 H         1 UNK         0.1329 
     78 H78       -77.5644   28.4152  -70.6201 H         1 UNK         0.1335 
     79 H79       -75.9195   29.6724  -69.3387 H         1 UNK         0.0680 
     80 H80       -75.2110   31.1300  -69.9786 H         1 UNK         0.0680 
     81 H81       -72.7852   30.9502  -69.5156 H         1 UNK         0.1032 
     82 H82       -71.6935   29.9130  -70.3827 H         1 UNK         0.1032 
     83 H83       -73.4954   32.0651  -71.5626 H         1 UNK         0.0461 
     84 H84       -70.0892   33.6380  -72.4517 H         1 UNK         0.3453 
     85 H85       -71.0911   32.6403  -73.4779 H         1 UNK         0.3453 
     86 H86       -73.5326   31.0190  -73.4947 H         1 UNK         0.2984 
     87 H87       -73.1946   29.6683  -75.1230 H         1 UNK         0.0554 
     88 H88       -71.4893   29.0089  -76.8181 H         1 UNK         0.0847 
     89 H89       -70.2106   29.1189  -75.6092 H         1 UNK         0.0847 
     90 H90       -71.0888   30.5611  -76.1009 H         1 UNK         0.0847 
     91 H91       -71.5008   27.3850  -74.1829 H         1 UNK         0.3141 
     92 H92       -72.3942   25.3219  -74.1606 H         1 UNK         0.0743 
     93 H93       -73.1205   26.1045  -71.8882 H         1 UNK         0.0784 
     94 H94       -74.8089   25.9320  -72.3390 H         1 UNK         0.0784 
     95 H95       -73.7748   24.5061  -72.2095 H         1 UNK         0.0784 
     96 H96       -75.0449   25.5342  -75.2792 H         1 UNK         0.3213 
     97 H97       -74.6812   22.4705  -76.9477 H         1 UNK         0.0855 
     98 H98       -76.9651   23.1780  -75.0459 H         1 UNK         0.0814 
     99 H99       -76.0221   21.6945  -74.9709 H         1 UNK         0.0814 
    100 H100      -77.0255   22.0105  -76.3742 H         1 UNK         0.0814 
    101 H101      -76.6442   24.6188  -76.9891 H         1 UNK         0.3105 
    102 H102      -74.7827   26.6309  -79.3068 H         1 UNK         0.0547 
    103 H103      -77.3621   25.0088  -79.6369 H         1 UNK         0.0837 
    104 H104      -76.8983   26.4205  -80.5796 H         1 UNK         0.0837 
    105 H105      -75.9639   24.9377  -80.7015 H         1 UNK         0.0837 
    106 H106      -77.2046   26.4728  -77.5390 H         1 UNK         0.3020 
    107 H107      -76.7236   28.7378  -75.7006 H         1 UNK         0.1245 
    108 H108      -78.2286   30.7743  -76.7205 H         1 UNK         0.0781 
    109 H109      -77.0890   30.6591  -78.0140 H         1 UNK         0.0781 
    110 H110      -76.6370   32.9270  -74.2268 H         1 UNK         0.0836 
    111 H111      -78.0654   32.3081  -75.0001 H         1 UNK         0.0836 
    112 H112      -78.6806   27.7913  -75.8059 H         1 UNK         0.3022 
    113 H113      -80.8148   27.4939  -76.3366 H         1 UNK         0.0747 
    114 H114      -81.8492   29.0295  -78.0252 H         1 UNK         0.0793 
    115 H115      -82.7308   27.5231  -77.8476 H         1 UNK         0.0793 
    116 H116      -81.6895   27.7773  -79.2487 H         1 UNK         0.0793 
    117 H117      -81.3982   25.5302  -78.0434 H         1 UNK         0.3047 
    118 H118      -81.0506   23.4616  -77.6606 H         1 UNK         0.0822 
    119 H119      -79.3886   23.3488  -79.5332 H         1 UNK         0.0807 
    120 H120      -79.4315   21.8240  -78.6628 H         1 UNK         0.0807 
    121 H121      -78.1028   22.9492  -78.4011 H         1 UNK         0.0807 
    122 H122      -78.9448   23.3655  -75.6468 H         1 UNK         0.2946 
    123 H123      -80.8447   21.3812  -73.5644 H         1 UNK         0.1144 
    124 H124      -79.7545   19.4260  -74.6535 H         1 UNK         0.0793 
    125 H125      -78.8912   19.8781  -73.1942 H         1 UNK         0.0793 
    126 H126      -78.2383   20.3035  -74.7770 H         1 UNK         0.0793 
    127 H127      -78.1436   22.3483  -73.3460 H         1 UNK         0.2896 
@<TRIPOS>BOND
     1    1    2 1    
     2    1   67 1    
     3    1   68 1    
     4    1   69 1    
     5    2    3 2    
     6    2    4 am   BACKBONE|DICT|INTERRES
     7    4    5 1    
     8    4   70 1    
     9    5    6 1    
    10    5   65 1    
    11    5   71 1    
    12    6    7 1    
    13    6   72 1    
    14    6   73 1    
    15    7    8 1    
    16    8    9 1    
    17    8   74 1    
    18    8   75 1    
    19    9   10 ar   
    20    9   14 ar   
    21   10   11 ar   
    22   10   76 1    
    23   11   12 ar   
    24   11   48 1    
    25   12   13 ar   
    26   12   77 1    
    27   13   14 ar   
    28   13   15 1    
    29   14   78 1    
    30   15   16 1    
    31   15   79 1    
    32   15   80 1    
    33   16   17 1    
    34   17   18 1    
    35   17   81 1    
    36   17   82 1    
    37   18   19 1    
    38   18   22 1    
    39   18   83 1    
    40   19   20 am   BACKBONE|DICT|INTERRES
    41   19   21 2    
    42   20   84 1    
    43   20   85 1    
    44   22   23 am   BACKBONE|DICT|INTERRES
    45   22   86 1    
    46   23   24 2    
    47   23   25 1    
    48   25   26 1    
    49   25   27 1    
    50   25   87 1    
    51   26   88 1    
    52   26   89 1    
    53   26   90 1    
    54   27   28 am   BACKBONE|DICT|INTERRES
    55   27   91 1    
    56   28   29 2    
    57   28   30 1    
    58   30   31 1    
    59   30   32 1    
    60   30   92 1    
    61   31   93 1    
    62   31   94 1    
    63   31   95 1    
    64   32   33 am   BACKBONE|DICT|INTERRES
    65   32   96 1    
    66   33   34 2    
    67   33   35 1    
    68   35   36 1    
    69   35   37 1    
    70   35   97 1    
    71   36   98 1    
    72   36   99 1    
    73   36  100 1    
    74   37   38 am   BACKBONE|DICT|INTERRES
    75   37  101 1    
    76   38   39 2    
    77   38   40 1    
    78   40   41 1    
    79   40   42 1    
    80   40  102 1    
    81   41  103 1    
    82   41  104 1    
    83   41  105 1    
    84   42   43 am   BACKBONE|DICT|INTERRES
    85   42  106 1    
    86   43   44 2    
    87   43   45 1    
    88   45   46 1    
    89   45   49 1    
    90   45  107 1    
    91   46   47 1    
    92   46  108 1    
    93   46  109 1    
    94   47   48 1    
    95   48  110 1    
    96   48  111 1    
    97   49   50 am   BACKBONE|DICT|INTERRES
    98   49  112 1    
    99   50   51 2    
   100   50   52 1    
   101   52   53 1    
   102   52   54 1    
   103   52  113 1    
   104   53  114 1    
   105   53  115 1    
   106   53  116 1    
   107   54   55 am   BACKBONE|DICT|INTERRES
   108   54  117 1    
   109   55   56 2    
   110   55   57 1    
   111   57   58 1    
   112   57   59 1    
   113   57  118 1    
   114   58  119 1    
   115   58  120 1    
   116   58  121 1    
   117   59   60 am   BACKBONE|DICT|INTERRES
   118   59  122 1    
   119   60   61 2    
   120   60   62 1    
   121   62   63 1    
   122   62   64 1    
   123   62  123 1    
   124   63  124 1    
   125   63  125 1    
   126   63  126 1    
   127   64   65 am   BACKBONE|DICT|INTERRES
   128   64  127 1    
   129   65   66 2    
@<TRIPOS>SUBSTRUCTURE
     1 UNK         1 GROUP             0       ****    0 ROOT    
