@<TRIPOS>MOLECULE
3R135
127   129    1
SMALL
USER_CHARGES


@<TRIPOS>ATOM
      1 CA        -82.4573   29.3166  -74.8764 C.3       0 UNK        -0.1998 
      2 C         -83.3830   28.2910  -74.2268 C.2       0 UNK         0.4909 
      3 O         -84.5952   28.3680  -74.4150 O.2       0 UNK        -0.5240 
      4 N         -82.8723   27.3152  -73.4612 N.am      1 UNK        -0.4739 
      5 CA        -81.4523   27.0799  -73.1546 C.3       1 UNK         0.0864 
      6 C6        -81.2532   26.4504  -71.7528 C.3       11 UNK        -0.0881 
      7 S7        -81.8785   27.5507  -70.4345 S.3       11 UNK        -0.2682 
      8 C8        -80.3684   27.9450  -69.4805 C.3       11 UNK         0.0289 
      9 C9        -79.2679   28.6690  -70.2587 C.ar      11 UNK        -0.0687 
     10 C10       -79.5558   29.5764  -71.2867 C.ar      11 UNK        -0.0823 
     11 C11       -78.5268   30.2007  -72.0005 C.ar      11 UNK        -0.0830 
     12 C12       -77.1991   29.9634  -71.6351 C.ar      11 UNK        -0.1021 
     13 C13       -76.8960   29.0757  -70.6012 C.ar      11 UNK        -0.0753 
     14 C14       -77.9316   28.4302  -69.9203 C.ar      11 UNK        -0.0933 
     15 C15       -75.4458   28.7799  -70.2612 C.3       11 UNK         0.0166 
     16 S16       -74.8317   27.4680  -71.3500 S.3       11 UNK        -0.2615 
     17 C17       -73.0501   27.4448  -70.9751 C.3       11 UNK        -0.0865 
     18 CA        -72.2220   28.4310  -71.8420 C.3       10 UNK         0.0862 
     19 C         -70.7065   28.3187  -71.4947 C.2       10 UNK         0.5551 
     20 N         -69.8301   27.9299  -72.4143 N.am      10 UNK        -0.7319 
     21 O         -70.3194   28.5931  -70.3614 O.2       10 UNK        -0.5018 
     22 N         -72.5379   28.3249  -73.2774 N.am      10 UNK        -0.4509 
     23 C         -72.2112   29.2436  -74.1954 C.2       10 UNK         0.4899 
     24 O         -71.6808   30.3221  -73.9228 O.2       10 UNK        -0.4839 
     25 CA        -72.5200   28.8903  -75.6633 C.3       9 UNK         0.0222 
     26 CB        -71.7263   29.7519  -76.6673 C.3       9 UNK        -0.1966 
     27 N         -72.3533   27.4654  -75.9750 N.am      9 UNK        -0.4218 
     28 C         -71.2541   26.7129  -75.8130 C.2       9 UNK         0.5020 
     29 O         -70.2031   27.1198  -75.3150 O.2       9 UNK        -0.5274 
     30 CA        -71.3446   25.2523  -76.2856 C.3       8 UNK         0.0270 
     31 CB        -71.8344   24.3354  -75.1528 C.3       8 UNK        -0.1976 
     32 N         -72.2074   25.0948  -77.4604 N.am      8 UNK        -0.4313 
     33 C         -71.8681   25.4516  -78.7055 C.2       8 UNK         0.5041 
     34 O         -70.7706   25.9231  -79.0056 O.2       8 UNK        -0.5577 
     35 CA        -72.9215   25.2495  -79.8102 C.3       7 UNK         0.0284 
     36 CB        -73.2165   23.7538  -80.0465 C.3       7 UNK        -0.1958 
     37 N         -74.1568   26.0242  -79.6192 N.am      7 UNK        -0.4454 
     38 C         -75.0724   25.9026  -78.6497 C.2       7 UNK         0.5089 
     39 O         -74.9992   25.0863  -77.7272 O.2       7 UNK        -0.5125 
     40 CA        -76.2891   26.8349  -78.7474 C.3       6 UNK         0.0408 
     41 CB        -77.4064   26.1689  -79.5657 C.3       6 UNK        -0.1791 
     42 N         -76.7879   27.1127  -77.4040 N.am      6 UNK        -0.4762 
     43 C         -76.4608   28.1829  -76.6670 C.2       6 UNK         0.5007 
     44 O         -75.8364   29.1480  -77.1074 O.2       6 UNK        -0.5032 
     45 CA        -76.8731   28.1478  -75.1776 C.3       5 UNK         0.0783 
     46 C46       -78.1953   28.9259  -74.9350 C.3       11 UNK        -0.0857 
     47 S47       -77.9132   30.7165  -74.7002 S.3       11 UNK        -0.2512 
     48 C48       -78.8566   31.1091  -73.1810 C.3       11 UNK         0.0225 
     49 N         -76.9448   26.7696  -74.6703 N.am      5 UNK        -0.4615 
     50 C         -75.8782   25.9766  -74.4901 C.2       4 UNK         0.5053 
     51 O         -74.7234   26.3654  -74.6658 O.2       4 UNK        -0.5105 
     52 CA        -76.1017   24.5141  -74.0702 C.3       4 UNK         0.0263 
     53 CB        -75.7988   24.3086  -72.5767 C.3       4 UNK        -0.1981 
     54 N         -77.4387   23.9914  -74.3784 N.am      4 UNK        -0.4224 
     55 C         -77.6731   22.7159  -74.7286 C.2       3 UNK         0.4895 
     56 O         -76.7864   21.8699  -74.8563 O.2       3 UNK        -0.5091 
     57 CA        -79.1337   22.2757  -74.9576 C.3       3 UNK         0.0250 
     58 CB        -79.6739   21.5542  -73.7117 C.3       3 UNK        -0.1996 
     59 N         -80.0439   23.3667  -75.3050 N.am      3 UNK        -0.4254 
     60 C         -79.9957   24.0756  -76.4397 C.2       2 UNK         0.5004 
     61 O         -79.2258   23.8276  -77.3668 O.2       2 UNK        -0.5226 
     62 CA        -80.9435   25.2843  -76.5588 C.3       2 UNK         0.0269 
     63 CB        -82.1290   24.9444  -77.4764 C.3       2 UNK        -0.1926 
     64 N         -81.4626   25.8381  -75.2974 N.am      2 UNK        -0.4687 
     65 C         -80.7365   26.2640  -74.2516 C.2       1 UNK         0.5165 
     66 O         -79.5286   26.0561  -74.1447 O.2       1 UNK        -0.5079 
     67 H67       -83.0149   29.9467  -75.5691 H         1 UNK         0.0900 
     68 H68       -81.6586   28.8382  -75.4417 H         1 UNK         0.0900 
     69 H69       -82.0178   29.9660  -74.1205 H         1 UNK         0.0900 
     70 H70       -83.5142   26.6675  -73.0258 H         1 UNK         0.2959 
     71 H71       -80.9362   28.0389  -73.1414 H         1 UNK         0.1079 
     72 H72       -81.7705   25.4919  -71.6820 H         1 UNK         0.0837 
     73 H73       -80.1980   26.2402  -71.5651 H         1 UNK         0.0837 
     74 H74       -80.6517   28.5675  -68.6309 H         1 UNK         0.0685 
     75 H75       -79.9821   27.0137  -69.0630 H         1 UNK         0.0685 
     76 H76       -80.5846   29.7825  -71.5460 H         1 UNK         0.1434 
     77 H77       -76.3972   30.4423  -72.1805 H         1 UNK         0.1329 
     78 H78       -77.6930   27.7317  -69.1297 H         1 UNK         0.1335 
     79 H79       -74.8395   29.6783  -70.3869 H         1 UNK         0.0680 
     80 H80       -75.3462   28.4721  -69.2192 H         1 UNK         0.0680 
     81 H81       -72.9096   27.6524  -69.9125 H         1 UNK         0.1032 
     82 H82       -72.6976   26.4234  -71.1305 H         1 UNK         0.1032 
     83 H83       -72.5159   29.4375  -71.5380 H         1 UNK         0.0461 
     84 H84       -68.8555   27.8669  -72.1674 H         1 UNK         0.3453 
     85 H85       -70.1224   27.7150  -73.3613 H         1 UNK         0.3453 
     86 H86       -73.0217   27.4870  -73.5762 H         1 UNK         0.2984 
     87 H87       -73.5773   29.1104  -75.8017 H         1 UNK         0.0554 
     88 H88       -71.9876   29.5027  -77.6958 H         1 UNK         0.0847 
     89 H89       -70.6503   29.6164  -76.5519 H         1 UNK         0.0847 
     90 H90       -71.9388   30.8127  -76.5294 H         1 UNK         0.0847 
     91 H91       -73.1964   26.9876  -76.2669 H         1 UNK         0.3141 
     92 H92       -70.3354   24.9361  -76.5583 H         1 UNK         0.0743 
     93 H93       -71.2096   24.4438  -74.2651 H         1 UNK         0.0784 
     94 H94       -72.8588   24.5608  -74.8590 H         1 UNK         0.0784 
     95 H95       -71.7962   23.2872  -75.4493 H         1 UNK         0.0784 
     96 H96       -73.1662   24.7870  -77.3114 H         1 UNK         0.3213 
     97 H97       -72.4777   25.6334  -80.7306 H         1 UNK         0.0855 
     98 H98       -73.6796   23.2793  -79.1810 H         1 UNK         0.0814 
     99 H99       -72.2974   23.2065  -80.2603 H         1 UNK         0.0814 
    100 H100      -73.8815   23.6127  -80.8984 H         1 UNK         0.0814 
    101 H101      -74.3106   26.7450  -80.3117 H         1 UNK         0.3105 
    102 H102      -75.9967   27.7631  -79.2430 H         1 UNK         0.0547 
    103 H103      -78.2932   26.8007  -79.6157 H         1 UNK         0.0837 
    104 H104      -77.0830   25.9824  -80.5905 H         1 UNK         0.0837 
    105 H105      -77.7025   25.2094  -79.1397 H         1 UNK         0.0837 
    106 H106      -77.2202   26.3324  -76.9301 H         1 UNK         0.3020 
    107 H107      -76.0757   28.6395  -74.6143 H         1 UNK         0.1245 
    108 H108      -78.6814   28.5445  -74.0391 H         1 UNK         0.0781 
    109 H109      -78.9132   28.7726  -75.7431 H         1 UNK         0.0781 
    110 H110      -78.6505   32.1419  -72.8972 H         1 UNK         0.0836 
    111 H111      -79.9202   31.0641  -73.4172 H         1 UNK         0.0836 
    112 H112      -77.8788   26.4291  -74.4533 H         1 UNK         0.3022 
    113 H113      -75.3657   23.9446  -74.6423 H         1 UNK         0.0747 
    114 H114      -75.8635   23.2571  -72.2972 H         1 UNK         0.0793 
    115 H115      -76.4918   24.8681  -71.9472 H         1 UNK         0.0793 
    116 H116      -74.7889   24.6423  -72.3356 H         1 UNK         0.0793 
    117 H117      -78.2240   24.6281  -74.2868 H         1 UNK         0.3047 
    118 H118      -79.1308   21.5673  -75.7889 H         1 UNK         0.0822 
    119 H119      -79.0365   20.7109  -73.4417 H         1 UNK         0.0807 
    120 H120      -80.6749   21.1580  -73.8839 H         1 UNK         0.0807 
    121 H121      -79.7177   22.2186  -72.8476 H         1 UNK         0.0807 
    122 H122      -80.7107   23.6477  -74.6014 H         1 UNK         0.2946 
    123 H123      -80.3637   26.0771  -77.0368 H         1 UNK         0.1144 
    124 H124      -81.7843   24.5596  -78.4375 H         1 UNK         0.0793 
    125 H125      -82.7373   25.8250  -77.6842 H         1 UNK         0.0793 
    126 H126      -82.7751   24.1850  -77.0341 H         1 UNK         0.0793 
    127 H127      -82.4556   26.0229  -75.2712 H         1 UNK         0.2896 
@<TRIPOS>BOND
     1    1    2 1    
     2    1   67 1    
     3    1   68 1    
     4    1   69 1    
     5    2    3 2    
     6    2    4 am   BACKBONE|DICT|INTERRES
     7    4    5 1    
     8    4   70 1    
     9    5    6 1    
    10    5   65 1    
    11    5   71 1    
    12    6    7 1    
    13    6   72 1    
    14    6   73 1    
    15    7    8 1    
    16    8    9 1    
    17    8   74 1    
    18    8   75 1    
    19    9   10 ar   
    20    9   14 ar   
    21   10   11 ar   
    22   10   76 1    
    23   11   12 ar   
    24   11   48 1    
    25   12   13 ar   
    26   12   77 1    
    27   13   14 ar   
    28   13   15 1    
    29   14   78 1    
    30   15   16 1    
    31   15   79 1    
    32   15   80 1    
    33   16   17 1    
    34   17   18 1    
    35   17   81 1    
    36   17   82 1    
    37   18   19 1    
    38   18   22 1    
    39   18   83 1    
    40   19   20 am   BACKBONE|DICT|INTERRES
    41   19   21 2    
    42   20   84 1    
    43   20   85 1    
    44   22   23 am   BACKBONE|DICT|INTERRES
    45   22   86 1    
    46   23   24 2    
    47   23   25 1    
    48   25   26 1    
    49   25   27 1    
    50   25   87 1    
    51   26   88 1    
    52   26   89 1    
    53   26   90 1    
    54   27   28 am   BACKBONE|DICT|INTERRES
    55   27   91 1    
    56   28   29 2    
    57   28   30 1    
    58   30   31 1    
    59   30   32 1    
    60   30   92 1    
    61   31   93 1    
    62   31   94 1    
    63   31   95 1    
    64   32   33 am   BACKBONE|DICT|INTERRES
    65   32   96 1    
    66   33   34 2    
    67   33   35 1    
    68   35   36 1    
    69   35   37 1    
    70   35   97 1    
    71   36   98 1    
    72   36   99 1    
    73   36  100 1    
    74   37   38 am   BACKBONE|DICT|INTERRES
    75   37  101 1    
    76   38   39 2    
    77   38   40 1    
    78   40   41 1    
    79   40   42 1    
    80   40  102 1    
    81   41  103 1    
    82   41  104 1    
    83   41  105 1    
    84   42   43 am   BACKBONE|DICT|INTERRES
    85   42  106 1    
    86   43   44 2    
    87   43   45 1    
    88   45   46 1    
    89   45   49 1    
    90   45  107 1    
    91   46   47 1    
    92   46  108 1    
    93   46  109 1    
    94   47   48 1    
    95   48  110 1    
    96   48  111 1    
    97   49   50 am   BACKBONE|DICT|INTERRES
    98   49  112 1    
    99   50   51 2    
   100   50   52 1    
   101   52   53 1    
   102   52   54 1    
   103   52  113 1    
   104   53  114 1    
   105   53  115 1    
   106   53  116 1    
   107   54   55 am   BACKBONE|DICT|INTERRES
   108   54  117 1    
   109   55   56 2    
   110   55   57 1    
   111   57   58 1    
   112   57   59 1    
   113   57  118 1    
   114   58  119 1    
   115   58  120 1    
   116   58  121 1    
   117   59   60 am   BACKBONE|DICT|INTERRES
   118   59  122 1    
   119   60   61 2    
   120   60   62 1    
   121   62   63 1    
   122   62   64 1    
   123   62  123 1    
   124   63  124 1    
   125   63  125 1    
   126   63  126 1    
   127   64   65 am   BACKBONE|DICT|INTERRES
   128   64  127 1    
   129   65   66 2    
@<TRIPOS>SUBSTRUCTURE
     1 UNK         1 GROUP             0       ****    0 ROOT    
