@<TRIPOS>MOLECULE
3R135
127   129    1
SMALL
USER_CHARGES


@<TRIPOS>ATOM
      1 CA        -77.9990   28.0109  -75.5765 C.3       0 UNK        -0.1998 
      2 C         -79.0167   27.4014  -74.6312 C.2       0 UNK         0.4909 
      3 O         -78.9224   26.2146  -74.3107 O.2       0 UNK        -0.5240 
      4 N         -79.9914   28.2048  -74.1907 N.am      1 UNK        -0.4739 
      5 CA        -81.1086   27.7813  -73.3443 C.3       1 UNK         0.0864 
      6 C6        -81.8851   28.9772  -72.7367 C.3       11 UNK        -0.0881 
      7 S7        -80.8264   30.2630  -71.9833 S.3       11 UNK        -0.2682 
      8 C8        -80.3114   29.4956  -70.4154 C.3       11 UNK         0.0289 
      9 C9        -78.8563   29.0481  -70.4633 C.ar      11 UNK        -0.0687 
     10 C10       -78.5296   27.7003  -70.6373 C.ar      11 UNK        -0.0823 
     11 C11       -77.1960   27.2805  -70.6505 C.ar      11 UNK        -0.0830 
     12 C12       -76.1844   28.2301  -70.4548 C.ar      11 UNK        -0.1021 
     13 C13       -76.4923   29.5845  -70.2932 C.ar      11 UNK        -0.0753 
     14 C14       -77.8316   29.9856  -70.3008 C.ar      11 UNK        -0.0933 
     15 C15       -75.3901   30.6121  -70.0539 C.3       11 UNK         0.0166 
     16 S16       -73.9961   30.4855  -71.2246 S.3       11 UNK        -0.2615 
     17 C17       -74.7506   31.0399  -72.7936 C.3       11 UNK        -0.0865 
     18 CA        -74.5587   30.0181  -73.9535 C.3       10 UNK         0.0862 
     19 C         -75.2835   30.4382  -75.2660 C.2       10 UNK         0.5551 
     20 N         -75.1210   29.6780  -76.3413 N.am      10 UNK        -0.7319 
     21 O         -75.9935   31.4400  -75.3182 O.2       10 UNK        -0.5018 
     22 N         -73.1473   29.6554  -74.1800 N.am      10 UNK        -0.4509 
     23 C         -72.1831   30.4780  -74.6113 C.2       10 UNK         0.4899 
     24 O         -72.3638   31.6650  -74.8856 O.2       10 UNK        -0.4839 
     25 CA        -70.7642   29.9014  -74.7624 C.3       9 UNK         0.0222 
     26 CB        -70.0194   29.9112  -73.4128 C.3       9 UNK        -0.1966 
     27 N         -70.6887   28.5876  -75.4159 N.am      9 UNK        -0.4218 
     28 C         -71.0942   27.3897  -74.9759 C.2       9 UNK         0.5020 
     29 O         -71.6762   27.2120  -73.9041 O.2       9 UNK        -0.5274 
     30 CA        -70.7993   26.1965  -75.9077 C.3       8 UNK         0.0270 
     31 CB        -71.1241   24.8421  -75.2506 C.3       8 UNK        -0.1976 
     32 N         -71.5273   26.2871  -77.1742 N.am      8 UNK        -0.4313 
     33 C         -71.2924   27.1339  -78.1832 C.2       8 UNK         0.5041 
     34 O         -70.3653   27.9462  -78.1772 O.2       8 UNK        -0.5577 
     35 CA        -72.2579   27.1048  -79.3873 C.3       7 UNK         0.0284 
     36 CB        -71.7372   26.1650  -80.4924 C.3       7 UNK        -0.1958 
     37 N         -73.6621   26.8191  -79.0420 N.am      7 UNK        -0.4454 
     38 C         -74.1880   25.6877  -78.5535 C.2       7 UNK         0.5089 
     39 O         -73.5525   24.6454  -78.3821 O.2       7 UNK        -0.5125 
     40 CA        -75.6524   25.7560  -78.0904 C.3       6 UNK         0.0408 
     41 CB        -76.5552   24.8987  -78.9907 C.3       6 UNK        -0.1791 
     42 N         -75.7776   25.3059  -76.7013 N.am      6 UNK        -0.4762 
     43 C         -75.1714   25.8787  -75.6483 C.2       6 UNK         0.5007 
     44 O         -74.5109   26.9155  -75.7391 O.2       6 UNK        -0.5032 
     45 CA        -75.3474   25.1992  -74.2752 C.3       5 UNK         0.0783 
     46 C46       -75.2438   26.2102  -73.1070 C.3       11 UNK        -0.0857 
     47 S47       -75.2279   25.3984  -71.4739 S.3       11 UNK        -0.2512 
     48 C48       -76.9006   25.7930  -70.8546 C.3       11 UNK         0.0225 
     49 N         -76.6064   24.4477  -74.2406 N.am      5 UNK        -0.4615 
     50 C         -76.7033   23.1175  -74.1321 C.2       4 UNK         0.5053 
     51 O         -75.7364   22.3595  -74.0564 O.2       4 UNK        -0.5105 
     52 CA        -78.1203   22.5260  -74.1230 C.3       4 UNK         0.0263 
     53 CB        -78.6688   22.4463  -72.6893 C.3       4 UNK        -0.1981 
     54 N         -79.0502   23.2938  -74.9499 N.am      4 UNK        -0.4224 
     55 C         -79.1358   23.2207  -76.2844 C.2       3 UNK         0.4895 
     56 O         -78.4046   22.5051  -76.9703 O.2       3 UNK        -0.5091 
     57 CA        -80.1989   24.1061  -76.9714 C.3       3 UNK         0.0250 
     58 CB        -80.7888   23.4446  -78.2343 C.3       3 UNK        -0.1996 
     59 N         -81.2676   24.5709  -76.0745 N.am      3 UNK        -0.4254 
     60 C         -82.1550   23.8402  -75.3802 C.2       2 UNK         0.5004 
     61 O         -82.2433   22.6144  -75.4632 O.2       2 UNK        -0.5226 
     62 CA        -83.0579   24.6108  -74.3881 C.3       2 UNK         0.0269 
     63 CB        -83.7287   23.6810  -73.3589 C.3       2 UNK        -0.1926 
     64 N         -82.3226   25.6599  -73.6664 N.am      2 UNK        -0.4687 
     65 C         -82.0446   26.8722  -74.1629 C.2       1 UNK         0.5165 
     66 O         -82.4498   27.2570  -75.2622 O.2       1 UNK        -0.5079 
     67 H67       -78.2726   29.0220  -75.8775 H         1 UNK         0.0900 
     68 H68       -77.9057   27.4025  -76.4751 H         1 UNK         0.0900 
     69 H69       -77.0303   28.0547  -75.0856 H         1 UNK         0.0900 
     70 H70       -80.0170   29.1707  -74.4838 H         1 UNK         0.2959 
     71 H71       -80.6953   27.1941  -72.5247 H         1 UNK         0.1079 
     72 H72       -82.4773   29.4743  -73.5080 H         1 UNK         0.0837 
     73 H73       -82.6026   28.6277  -71.9919 H         1 UNK         0.0837 
     74 H74       -80.4363   30.2249  -69.6136 H         1 UNK         0.0685 
     75 H75       -80.9671   28.6602  -70.1660 H         1 UNK         0.0685 
     76 H76       -79.3162   26.9684  -70.7506 H         1 UNK         0.1434 
     77 H77       -75.1481   27.9246  -70.4294 H         1 UNK         0.1329 
     78 H78       -78.0832   31.0282  -70.1614 H         1 UNK         0.1335 
     79 H79       -75.7878   31.6276  -70.0923 H         1 UNK         0.0680 
     80 H80       -75.0052   30.4722  -69.0430 H         1 UNK         0.0680 
     81 H81       -74.3220   32.0075  -73.0589 H         1 UNK         0.1032 
     82 H82       -75.8149   31.2205  -72.6316 H         1 UNK         0.1032 
     83 H83       -75.0546   29.0998  -73.6415 H         1 UNK         0.0461 
     84 H84       -74.6252   28.7964  -76.2591 H         1 UNK         0.3453 
     85 H85       -75.5706   29.9373  -77.2035 H         1 UNK         0.3453 
     86 H86       -72.8892   28.6902  -73.9935 H         1 UNK         0.2984 
     87 H87       -70.2267   30.5774  -75.4294 H         1 UNK         0.0554 
     88 H88       -68.9886   29.5754  -73.5243 H         1 UNK         0.0847 
     89 H89       -70.5038   29.2719  -72.6739 H         1 UNK         0.0847 
     90 H90       -69.9894   30.9181  -72.9943 H         1 UNK         0.0847 
     91 H91       -70.3181   28.5975  -76.3645 H         1 UNK         0.3141 
     92 H92       -69.7294   26.2126  -76.1257 H         1 UNK         0.0743 
     93 H93       -72.1868   24.7483  -75.0268 H         1 UNK         0.0784 
     94 H94       -70.8429   24.0098  -75.8961 H         1 UNK         0.0784 
     95 H95       -70.5806   24.7219  -74.3124 H         1 UNK         0.0784 
     96 H96       -72.3059   25.6469  -77.2972 H         1 UNK         0.3213 
     97 H97       -72.2604   28.1161  -79.7976 H         1 UNK         0.0855 
     98 H98       -70.7418   26.4681  -80.8200 H         1 UNK         0.0814 
     99 H99       -72.3858   26.1841  -81.3681 H         1 UNK         0.0814 
    100 H100      -71.6617   25.1319  -80.1524 H         1 UNK         0.0814 
    101 H101      -74.2757   27.6204  -79.1004 H         1 UNK         0.3105 
    102 H102      -75.9974   26.7908  -78.1403 H         1 UNK         0.0547 
    103 H103      -76.4737   25.2077  -80.0336 H         1 UNK         0.0837 
    104 H104      -76.2881   23.8421  -78.9417 H         1 UNK         0.0837 
    105 H105      -77.6032   24.9919  -78.7081 H         1 UNK         0.0837 
    106 H106      -76.2760   24.4409  -76.5481 H         1 UNK         0.3020 
    107 H107      -74.5010   24.5151  -74.1866 H         1 UNK         0.1245 
    108 H108      -76.0574   26.9346  -73.1555 H         1 UNK         0.0781 
    109 H109      -74.3183   26.7845  -73.1742 H         1 UNK         0.0781 
    110 H110      -77.0491   25.2761  -69.9058 H         1 UNK         0.0836 
    111 H111      -77.6239   25.3731  -71.5543 H         1 UNK         0.0836 
    112 H112      -77.4577   25.0025  -74.2987 H         1 UNK         0.3022 
    113 H113      -78.0580   21.5101  -74.5196 H         1 UNK         0.0747 
    114 H114      -79.6279   21.9286  -72.6631 H         1 UNK         0.0793 
    115 H115      -77.9864   21.8972  -72.0389 H         1 UNK         0.0793 
    116 H116      -78.8118   23.4353  -72.2540 H         1 UNK         0.0793 
    117 H117      -79.6277   23.9763  -74.4781 H         1 UNK         0.3047 
    118 H118      -79.6698   25.0059  -77.2881 H         1 UNK         0.0822 
    119 H119      -81.5186   24.0935  -78.7183 H         1 UNK         0.0807 
    120 H120      -81.2808   22.4993  -78.0030 H         1 UNK         0.0807 
    121 H121      -80.0097   23.2335  -78.9679 H         1 UNK         0.0807 
    122 H122      -81.3084   25.5737  -75.9342 H         1 UNK         0.2946 
    123 H123      -83.8503   25.0733  -74.9816 H         1 UNK         0.1144 
    124 H124      -84.3473   22.9300  -73.8524 H         1 UNK         0.0793 
    125 H125      -84.3797   24.2384  -72.6852 H         1 UNK         0.0793 
    126 H126      -82.9921   23.1510  -72.7536 H         1 UNK         0.0793 
    127 H127      -81.9354   25.3959  -72.7714 H         1 UNK         0.2896 
@<TRIPOS>BOND
     1    1    2 1    
     2    1   67 1    
     3    1   68 1    
     4    1   69 1    
     5    2    3 2    
     6    2    4 am   BACKBONE|DICT|INTERRES
     7    4    5 1    
     8    4   70 1    
     9    5    6 1    
    10    5   65 1    
    11    5   71 1    
    12    6    7 1    
    13    6   72 1    
    14    6   73 1    
    15    7    8 1    
    16    8    9 1    
    17    8   74 1    
    18    8   75 1    
    19    9   10 ar   
    20    9   14 ar   
    21   10   11 ar   
    22   10   76 1    
    23   11   12 ar   
    24   11   48 1    
    25   12   13 ar   
    26   12   77 1    
    27   13   14 ar   
    28   13   15 1    
    29   14   78 1    
    30   15   16 1    
    31   15   79 1    
    32   15   80 1    
    33   16   17 1    
    34   17   18 1    
    35   17   81 1    
    36   17   82 1    
    37   18   19 1    
    38   18   22 1    
    39   18   83 1    
    40   19   20 am   BACKBONE|DICT|INTERRES
    41   19   21 2    
    42   20   84 1    
    43   20   85 1    
    44   22   23 am   BACKBONE|DICT|INTERRES
    45   22   86 1    
    46   23   24 2    
    47   23   25 1    
    48   25   26 1    
    49   25   27 1    
    50   25   87 1    
    51   26   88 1    
    52   26   89 1    
    53   26   90 1    
    54   27   28 am   BACKBONE|DICT|INTERRES
    55   27   91 1    
    56   28   29 2    
    57   28   30 1    
    58   30   31 1    
    59   30   32 1    
    60   30   92 1    
    61   31   93 1    
    62   31   94 1    
    63   31   95 1    
    64   32   33 am   BACKBONE|DICT|INTERRES
    65   32   96 1    
    66   33   34 2    
    67   33   35 1    
    68   35   36 1    
    69   35   37 1    
    70   35   97 1    
    71   36   98 1    
    72   36   99 1    
    73   36  100 1    
    74   37   38 am   BACKBONE|DICT|INTERRES
    75   37  101 1    
    76   38   39 2    
    77   38   40 1    
    78   40   41 1    
    79   40   42 1    
    80   40  102 1    
    81   41  103 1    
    82   41  104 1    
    83   41  105 1    
    84   42   43 am   BACKBONE|DICT|INTERRES
    85   42  106 1    
    86   43   44 2    
    87   43   45 1    
    88   45   46 1    
    89   45   49 1    
    90   45  107 1    
    91   46   47 1    
    92   46  108 1    
    93   46  109 1    
    94   47   48 1    
    95   48  110 1    
    96   48  111 1    
    97   49   50 am   BACKBONE|DICT|INTERRES
    98   49  112 1    
    99   50   51 2    
   100   50   52 1    
   101   52   53 1    
   102   52   54 1    
   103   52  113 1    
   104   53  114 1    
   105   53  115 1    
   106   53  116 1    
   107   54   55 am   BACKBONE|DICT|INTERRES
   108   54  117 1    
   109   55   56 2    
   110   55   57 1    
   111   57   58 1    
   112   57   59 1    
   113   57  118 1    
   114   58  119 1    
   115   58  120 1    
   116   58  121 1    
   117   59   60 am   BACKBONE|DICT|INTERRES
   118   59  122 1    
   119   60   61 2    
   120   60   62 1    
   121   62   63 1    
   122   62   64 1    
   123   62  123 1    
   124   63  124 1    
   125   63  125 1    
   126   63  126 1    
   127   64   65 am   BACKBONE|DICT|INTERRES
   128   64  127 1    
   129   65   66 2    
@<TRIPOS>SUBSTRUCTURE
     1 UNK         1 GROUP             0       ****    0 ROOT    
