@<TRIPOS>MOLECULE
3R135
127   129    1
SMALL
USER_CHARGES


@<TRIPOS>ATOM
      1 CA        -81.6356   21.4470  -72.3357 C.3       0 UNK        -0.1998 
      2 C         -80.9617   22.8085  -72.4054 C.2       0 UNK         0.4909 
      3 O         -79.8503   22.9093  -72.9256 O.2       0 UNK        -0.5240 
      4 N         -81.6353   23.8545  -71.9014 N.am      1 UNK        -0.4739 
      5 CA        -81.1696   25.2486  -71.8486 C.3       1 UNK         0.0864 
      6 C6        -80.0458   25.4437  -70.7925 C.3       11 UNK        -0.0881 
      7 S7        -79.8580   27.1790  -70.2459 S.3       11 UNK        -0.2682 
      8 C8        -78.1329   27.5408  -70.7236 C.3       11 UNK         0.0289 
      9 C9        -77.9728   28.9219  -71.3439 C.ar      11 UNK        -0.0687 
     10 C10       -78.7306   29.2689  -72.4647 C.ar      11 UNK        -0.0823 
     11 C11       -78.5436   30.4949  -73.1050 C.ar      11 UNK        -0.0830 
     12 C12       -77.6020   31.3937  -72.5992 C.ar      11 UNK        -0.1021 
     13 C13       -76.8449   31.0680  -71.4698 C.ar      11 UNK        -0.0753 
     14 C14       -77.0317   29.8294  -70.8452 C.ar      11 UNK        -0.0933 
     15 C15       -75.8243   32.0621  -70.9396 C.3       11 UNK         0.0166 
     16 S16       -74.2537   31.9444  -71.8506 S.3       11 UNK        -0.2615 
     17 C17       -73.4255   30.5693  -70.9812 C.3       11 UNK        -0.0865 
     18 CA        -71.8788   30.6611  -71.1279 C.3       10 UNK         0.0862 
     19 C         -71.1033   29.7983  -70.0821 C.2       10 UNK         0.5551 
     20 N         -69.8868   29.3538  -70.3737 N.am      10 UNK        -0.7319 
     21 O         -71.5888   29.5572  -68.9792 O.2       10 UNK        -0.5018 
     22 N         -71.4388   30.4984  -72.5288 N.am      10 UNK        -0.4509 
     23 C         -71.4650   29.3609  -73.2376 C.2       10 UNK         0.4899 
     24 O         -71.8539   28.2820  -72.7836 O.2       10 UNK        -0.4839 
     25 CA        -70.9412   29.4512  -74.6865 C.3       9 UNK         0.0222 
     26 CB        -69.5152   30.0338  -74.7385 C.3       9 UNK        -0.1966 
     27 N         -70.9221   28.1340  -75.3259 N.am      9 UNK        -0.4218 
     28 C         -71.9676   27.5343  -75.9088 C.2       9 UNK         0.5020 
     29 O         -73.0511   28.0826  -76.1166 O.2       9 UNK        -0.5274 
     30 CA        -71.7351   26.0718  -76.3150 C.3       8 UNK         0.0270 
     31 CB        -71.5102   25.1792  -75.0772 C.3       8 UNK        -0.1976 
     32 N         -72.8616   25.5299  -77.0769 N.am      8 UNK        -0.4313 
     33 C         -72.7337   24.6379  -78.0671 C.2       8 UNK         0.5041 
     34 O         -71.6463   24.2933  -78.5346 O.2       8 UNK        -0.5577 
     35 CA        -74.0045   23.9620  -78.6079 C.3       7 UNK         0.0284 
     36 CB        -74.2997   22.6817  -77.8096 C.3       7 UNK        -0.1958 
     37 N         -75.1967   24.8100  -78.6199 N.am      7 UNK        -0.4454 
     38 C         -75.4189   25.7833  -79.5129 C.2       7 UNK         0.5089 
     39 O         -74.5996   26.1366  -80.3621 O.2       7 UNK        -0.5125 
     40 CA        -76.8028   26.4537  -79.4775 C.3       6 UNK         0.0408 
     41 CB        -77.8514   25.5774  -80.1812 C.3       6 UNK        -0.1791 
     42 N         -77.2469   26.7413  -78.1154 N.am      6 UNK        -0.4762 
     43 C         -76.7659   27.7408  -77.3626 C.2       6 UNK         0.5007 
     44 O         -75.9490   28.5684  -77.7677 O.2       6 UNK        -0.5032 
     45 CA        -77.2951   27.8248  -75.9148 C.3       5 UNK         0.0783 
     46 C46       -78.6586   28.5667  -75.8872 C.3       11 UNK        -0.0857 
     47 S47       -78.4833   30.3834  -75.8742 S.3       11 UNK        -0.2512 
     48 C48       -79.3546   30.8467  -74.3425 C.3       11 UNK         0.0225 
     49 N         -77.3748   26.5061  -75.2667 N.am      5 UNK        -0.4615 
     50 C         -76.3552   25.6446  -75.1198 C.2       4 UNK         0.5053 
     51 O         -75.1989   25.8821  -75.4596 O.2       4 UNK        -0.5105 
     52 CA        -76.6805   24.2511  -74.5553 C.3       4 UNK         0.0263 
     53 CB        -76.6515   24.2560  -73.0225 C.3       4 UNK        -0.1981 
     54 N         -77.9647   23.7325  -75.0300 N.am      4 UNK        -0.4224 
     55 C         -78.2272   23.4465  -76.3140 C.2       3 UNK         0.4895 
     56 O         -77.3979   23.5340  -77.2193 O.2       3 UNK        -0.5091 
     57 CA        -79.6742   23.0655  -76.6577 C.3       3 UNK         0.0250 
     58 CB        -79.9856   21.6184  -76.2435 C.3       3 UNK        -0.1996 
     59 N         -80.6327   23.9884  -76.0466 N.am      3 UNK        -0.4254 
     60 C         -80.7515   25.2800  -76.3883 C.2       2 UNK         0.5004 
     61 O         -80.1116   25.8078  -77.2982 O.2       2 UNK        -0.5226 
     62 CA        -81.7259   26.1367  -75.5608 C.3       2 UNK         0.0269 
     63 CB        -83.1223   26.1308  -76.2023 C.3       2 UNK        -0.1926 
     64 N         -81.8330   25.7245  -74.1565 N.am      2 UNK        -0.4687 
     65 C         -80.8320   25.7739  -73.2641 C.2       1 UNK         0.5165 
     66 O         -79.6934   26.1477  -73.5481 O.2       1 UNK        -0.5079 
     67 H67       -82.6008   21.4938  -71.8319 H         1 UNK         0.0900 
     68 H68       -81.7945   21.0551  -73.3398 H         1 UNK         0.0900 
     69 H69       -81.0032   20.7454  -71.7925 H         1 UNK         0.0900 
     70 H70       -82.5516   23.6950  -71.5050 H         1 UNK         0.2959 
     71 H71       -82.0293   25.8321  -71.5139 H         1 UNK         0.1079 
     72 H72       -79.1022   25.0277  -71.1415 H         1 UNK         0.0837 
     73 H73       -80.2915   24.8698  -69.8978 H         1 UNK         0.0837 
     74 H74       -77.4946   27.4270  -69.8463 H         1 UNK         0.0685 
     75 H75       -77.7807   26.8176  -71.4570 H         1 UNK         0.0685 
     76 H76       -79.4621   28.5706  -72.8414 H         1 UNK         0.1434 
     77 H77       -77.4490   32.3445  -73.0917 H         1 UNK         0.1329 
     78 H78       -76.4343   29.5684  -69.9824 H         1 UNK         0.1335 
     79 H79       -75.6590   31.9199  -69.8706 H         1 UNK         0.0680 
     80 H80       -76.2147   33.0750  -71.0500 H         1 UNK         0.0680 
     81 H81       -73.8020   29.6182  -71.3611 H         1 UNK         0.1032 
     82 H82       -73.7148   30.6126  -69.9301 H         1 UNK         0.1032 
     83 H83       -71.5984   31.6813  -70.8625 H         1 UNK         0.0461 
     84 H84       -69.4729   29.5527  -71.2699 H         1 UNK         0.3453 
     85 H85       -69.3836   28.8069  -69.6930 H         1 UNK         0.3453 
     86 H86       -71.0978   31.3383  -72.9733 H         1 UNK         0.2984 
     87 H87       -71.6084   30.1113  -75.2448 H         1 UNK         0.0554 
     88 H88       -69.4869   31.0628  -74.3790 H         1 UNK         0.0847 
     89 H89       -69.1319   30.0487  -75.7592 H         1 UNK         0.0847 
     90 H90       -68.8185   29.4553  -74.1302 H         1 UNK         0.0847 
     91 H91       -70.0879   27.5856  -75.1752 H         1 UNK         0.3141 
     92 H92       -70.8334   26.0591  -76.9311 H         1 UNK         0.0743 
     93 H93       -72.3816   25.1865  -74.4204 H         1 UNK         0.0784 
     94 H94       -71.3171   24.1450  -75.3631 H         1 UNK         0.0784 
     95 H95       -70.6555   25.5119  -74.4877 H         1 UNK         0.0784 
     96 H96       -73.7841   25.7927  -76.7303 H         1 UNK         0.3213 
     97 H97       -73.7972   23.6666  -79.6390 H         1 UNK         0.0855 
     98 H98       -74.5328   22.9033  -76.7681 H         1 UNK         0.0814 
     99 H99       -73.4407   22.0092  -77.8159 H         1 UNK         0.0814 
    100 H100      -75.1423   22.1344  -78.2328 H         1 UNK         0.0814 
    101 H101      -75.9496   24.5486  -77.9879 H         1 UNK         0.3105 
    102 H102      -76.7338   27.3963  -80.0247 H         1 UNK         0.0547 
    103 H103      -77.5571   25.3674  -81.2102 H         1 UNK         0.0837 
    104 H104      -77.9850   24.6193  -79.6777 H         1 UNK         0.0837 
    105 H105      -78.8221   26.0725  -80.2153 H         1 UNK         0.0837 
    106 H106      -77.9540   26.1310  -77.7202 H         1 UNK         0.3020 
    107 H107      -76.5670   28.3985  -75.3362 H         1 UNK         0.1245 
    108 H108      -79.2302   28.2686  -75.0127 H         1 UNK         0.0781 
    109 H109      -79.2871   28.2893  -76.7354 H         1 UNK         0.0781 
    110 H110      -80.3334   30.3652  -74.3130 H         1 UNK         0.0836 
    111 H111      -79.5482   31.9203  -74.3607 H         1 UNK         0.0836 
    112 H112      -78.2769   26.2459  -74.8786 H         1 UNK         0.3022 
    113 H113      -75.9026   23.5672  -74.8996 H         1 UNK         0.0747 
    114 H114      -76.8052   23.2554  -72.6180 H         1 UNK         0.0793 
    115 H115      -75.6938   24.6198  -72.6481 H         1 UNK         0.0793 
    116 H116      -77.4288   24.9011  -72.6217 H         1 UNK         0.0793 
    117 H117      -78.6978   23.6129  -74.3345 H         1 UNK         0.3047 
    118 H118      -79.7859   23.1368  -77.7420 H         1 UNK         0.0822 
    119 H119      -80.9995   21.3341  -76.5254 H         1 UNK         0.0807 
    120 H120      -79.8803   21.4670  -75.1694 H         1 UNK         0.0807 
    121 H121      -79.3061   20.9214  -76.7358 H         1 UNK         0.0807 
    122 H122      -81.1723   23.6453  -75.2659 H         1 UNK         0.2946 
    123 H123      -81.3498   27.1613  -75.5785 H         1 UNK         0.1144 
    124 H124      -83.0744   26.4560  -77.2428 H         1 UNK         0.0793 
    125 H125      -83.8003   26.8097  -75.6846 H         1 UNK         0.0793 
    126 H126      -83.5688   25.1357  -76.1922 H         1 UNK         0.0793 
    127 H127      -82.7311   25.3752  -73.8535 H         1 UNK         0.2896 
@<TRIPOS>BOND
     1    1    2 1    
     2    1   67 1    
     3    1   68 1    
     4    1   69 1    
     5    2    3 2    
     6    2    4 am   BACKBONE|DICT|INTERRES
     7    4    5 1    
     8    4   70 1    
     9    5    6 1    
    10    5   65 1    
    11    5   71 1    
    12    6    7 1    
    13    6   72 1    
    14    6   73 1    
    15    7    8 1    
    16    8    9 1    
    17    8   74 1    
    18    8   75 1    
    19    9   10 ar   
    20    9   14 ar   
    21   10   11 ar   
    22   10   76 1    
    23   11   12 ar   
    24   11   48 1    
    25   12   13 ar   
    26   12   77 1    
    27   13   14 ar   
    28   13   15 1    
    29   14   78 1    
    30   15   16 1    
    31   15   79 1    
    32   15   80 1    
    33   16   17 1    
    34   17   18 1    
    35   17   81 1    
    36   17   82 1    
    37   18   19 1    
    38   18   22 1    
    39   18   83 1    
    40   19   20 am   BACKBONE|DICT|INTERRES
    41   19   21 2    
    42   20   84 1    
    43   20   85 1    
    44   22   23 am   BACKBONE|DICT|INTERRES
    45   22   86 1    
    46   23   24 2    
    47   23   25 1    
    48   25   26 1    
    49   25   27 1    
    50   25   87 1    
    51   26   88 1    
    52   26   89 1    
    53   26   90 1    
    54   27   28 am   BACKBONE|DICT|INTERRES
    55   27   91 1    
    56   28   29 2    
    57   28   30 1    
    58   30   31 1    
    59   30   32 1    
    60   30   92 1    
    61   31   93 1    
    62   31   94 1    
    63   31   95 1    
    64   32   33 am   BACKBONE|DICT|INTERRES
    65   32   96 1    
    66   33   34 2    
    67   33   35 1    
    68   35   36 1    
    69   35   37 1    
    70   35   97 1    
    71   36   98 1    
    72   36   99 1    
    73   36  100 1    
    74   37   38 am   BACKBONE|DICT|INTERRES
    75   37  101 1    
    76   38   39 2    
    77   38   40 1    
    78   40   41 1    
    79   40   42 1    
    80   40  102 1    
    81   41  103 1    
    82   41  104 1    
    83   41  105 1    
    84   42   43 am   BACKBONE|DICT|INTERRES
    85   42  106 1    
    86   43   44 2    
    87   43   45 1    
    88   45   46 1    
    89   45   49 1    
    90   45  107 1    
    91   46   47 1    
    92   46  108 1    
    93   46  109 1    
    94   47   48 1    
    95   48  110 1    
    96   48  111 1    
    97   49   50 am   BACKBONE|DICT|INTERRES
    98   49  112 1    
    99   50   51 2    
   100   50   52 1    
   101   52   53 1    
   102   52   54 1    
   103   52  113 1    
   104   53  114 1    
   105   53  115 1    
   106   53  116 1    
   107   54   55 am   BACKBONE|DICT|INTERRES
   108   54  117 1    
   109   55   56 2    
   110   55   57 1    
   111   57   58 1    
   112   57   59 1    
   113   57  118 1    
   114   58  119 1    
   115   58  120 1    
   116   58  121 1    
   117   59   60 am   BACKBONE|DICT|INTERRES
   118   59  122 1    
   119   60   61 2    
   120   60   62 1    
   121   62   63 1    
   122   62   64 1    
   123   62  123 1    
   124   63  124 1    
   125   63  125 1    
   126   63  126 1    
   127   64   65 am   BACKBONE|DICT|INTERRES
   128   64  127 1    
   129   65   66 2    
@<TRIPOS>SUBSTRUCTURE
     1 UNK         1 GROUP             0       ****    0 ROOT    
