@<TRIPOS>MOLECULE
3R135
127   129    1
SMALL
USER_CHARGES


@<TRIPOS>ATOM
      1 CA        -75.2434   22.4264  -73.8133 C.3       0 UNK        -0.1998 
      2 C         -76.4557   22.4722  -72.8967 C.2       0 UNK         0.4909 
      3 O         -76.6153   21.5993  -72.0425 O.2       0 UNK        -0.5240 
      4 N         -77.2994   23.4927  -73.0681 N.am      1 UNK        -0.4739 
      5 CA        -78.5354   23.7067  -72.3081 C.3       1 UNK         0.0864 
      6 C6        -78.6985   25.2039  -71.9411 C.3       11 UNK        -0.0881 
      7 S7        -77.5066   25.7062  -70.6579 S.3       11 UNK        -0.2682 
      8 C8        -78.2383   27.2695  -70.0848 C.3       11 UNK         0.0289 
      9 C9        -78.1325   28.3648  -71.1356 C.ar      11 UNK        -0.0687 
     10 C10       -79.2013   28.6201  -71.9996 C.ar      11 UNK        -0.0823 
     11 C11       -79.1155   29.6394  -72.9516 C.ar      11 UNK        -0.0830 
     12 C12       -77.9545   30.4159  -73.0249 C.ar      11 UNK        -0.1021 
     13 C13       -76.8742   30.1660  -72.1720 C.ar      11 UNK        -0.0753 
     14 C14       -76.9710   29.1374  -71.2297 C.ar      11 UNK        -0.0933 
     15 C15       -75.6216   31.0321  -72.2336 C.3       11 UNK         0.0166 
     16 S16       -74.8551   31.0461  -73.8839 S.3       11 UNK        -0.2615 
     17 C17       -73.4707   32.1999  -73.6002 C.3       11 UNK        -0.0865 
     18 CA        -72.1954   31.8310  -74.4014 C.3       10 UNK         0.0862 
     19 C         -71.1177   32.9354  -74.2138 C.2       10 UNK         0.5551 
     20 N         -71.0508   33.8979  -75.1233 N.am      10 UNK        -0.7319 
     21 O         -70.3808   32.9518  -73.2292 O.2       10 UNK        -0.5018 
     22 N         -71.7099   30.4864  -74.0549 N.am      10 UNK        -0.4509 
     23 C         -70.6553   29.8631  -74.5932 C.2       10 UNK         0.4899 
     24 O         -69.9821   30.3238  -75.5157 O.2       10 UNK        -0.4839 
     25 CA        -70.2825   28.4825  -74.0213 C.3       9 UNK         0.0222 
     26 CB        -69.5668   28.6166  -72.6628 C.3       9 UNK        -0.1966 
     27 N         -71.3963   27.5262  -73.9584 N.am      9 UNK        -0.4218 
     28 C         -72.5134   27.5645  -73.2186 C.2       9 UNK         0.5020 
     29 O         -72.7568   28.4502  -72.3963 O.2       9 UNK        -0.5274 
     30 CA        -73.5253   26.4227  -73.4444 C.3       8 UNK         0.0270 
     31 CB        -74.8986   26.7268  -72.8240 C.3       8 UNK        -0.1976 
     32 N         -73.7125   26.1010  -74.8635 N.am      8 UNK        -0.4313 
     33 C         -72.9127   25.3071  -75.5897 C.2       8 UNK         0.5041 
     34 O         -71.8700   24.8252  -75.1461 O.2       8 UNK        -0.5577 
     35 CA        -73.3096   25.0040  -77.0451 C.3       7 UNK         0.0284 
     36 CB        -73.9004   23.5901  -77.1587 C.3       7 UNK        -0.1958 
     37 N         -74.2681   25.9665  -77.5865 N.am      7 UNK        -0.4454 
     38 C         -73.9367   27.1596  -78.0976 C.2       7 UNK         0.5089 
     39 O         -72.7767   27.5519  -78.2247 O.2       7 UNK        -0.5125 
     40 CA        -75.0952   28.0782  -78.5325 C.3       6 UNK         0.0408 
     41 CB        -75.3388   27.9514  -80.0445 C.3       6 UNK        -0.1791 
     42 N         -76.3557   27.8388  -77.8182 N.am      6 UNK        -0.4762 
     43 C         -76.5251   27.9885  -76.4951 C.2       6 UNK         0.5007 
     44 O         -75.6165   28.2987  -75.7303 O.2       6 UNK        -0.5032 
     45 CA        -77.9211   27.6696  -75.9291 C.3       5 UNK         0.0783 
     46 C46       -78.8708   28.8769  -76.1102 C.3       11 UNK        -0.0857 
     47 S47       -80.4302   28.6472  -75.1934 S.3       11 UNK        -0.2512 
     48 C48       -80.2851   29.9106  -73.8879 C.3       11 UNK         0.0225 
     49 N         -78.4681   26.4482  -76.5295 N.am      5 UNK        -0.4615 
     50 C         -77.9475   25.2236  -76.3955 C.2       4 UNK         0.5053 
     51 O         -76.9826   24.9675  -75.6715 O.2       4 UNK        -0.5105 
     52 CA        -78.6193   24.1182  -77.2261 C.3       4 UNK         0.0263 
     53 CB        -77.8854   22.7672  -77.1317 C.3       4 UNK        -0.1981 
     54 N         -80.0168   23.9419  -76.8279 N.am      4 UNK        -0.4224 
     55 C         -81.0518   24.6387  -77.3207 C.2       3 UNK         0.4895 
     56 O         -80.9171   25.5489  -78.1400 O.2       3 UNK        -0.5091 
     57 CA        -82.4713   24.2689  -76.8474 C.3       3 UNK         0.0250 
     58 CB        -83.2012   23.4628  -77.9346 C.3       3 UNK        -0.1996 
     59 N         -82.4835   23.5016  -75.6000 N.am      3 UNK        -0.4254 
     60 C         -82.3934   24.0450  -74.3797 C.2       2 UNK         0.5004 
     61 O         -82.3798   25.2589  -74.1710 O.2       2 UNK        -0.5226 
     62 CA        -82.2462   23.0865  -73.1798 C.3       2 UNK         0.0269 
     63 CB        -82.4732   21.5931  -73.5140 C.3       2 UNK        -0.1926 
     64 N         -80.9452   23.2890  -72.5275 N.am      2 UNK        -0.4687 
     65 C         -79.7429   23.1938  -73.1177 C.2       1 UNK         0.5165 
     66 O         -79.5871   22.7506  -74.2581 O.2       1 UNK        -0.5079 
     67 H67       -75.0226   23.4118  -74.2210 H         1 UNK         0.0900 
     68 H68       -75.4209   21.7407  -74.6408 H         1 UNK         0.0900 
     69 H69       -74.3642   22.0873  -73.2670 H         1 UNK         0.0900 
     70 H70       -77.1578   24.1189  -73.8550 H         1 UNK         0.2959 
     71 H71       -78.5119   23.1227  -71.3852 H         1 UNK         0.1079 
     72 H72       -78.5668   25.8361  -72.8219 H         1 UNK         0.0837 
     73 H73       -79.6973   25.4181  -71.5580 H         1 UNK         0.0837 
     74 H74       -79.2790   27.1069  -69.8006 H         1 UNK         0.0685 
     75 H75       -77.7229   27.5841  -69.1761 H         1 UNK         0.0685 
     76 H76       -80.1015   28.0241  -71.9354 H         1 UNK         0.1434 
     77 H77       -77.8845   31.2159  -73.7492 H         1 UNK         0.1329 
     78 H78       -76.1438   28.9389  -70.5620 H         1 UNK         0.1335 
     79 H79       -74.8820   30.6859  -71.5112 H         1 UNK         0.0680 
     80 H80       -75.8836   32.0515  -71.9509 H         1 UNK         0.0680 
     81 H81       -73.2413   32.2391  -72.5333 H         1 UNK         0.1032 
     82 H82       -73.8170   33.1992  -73.8717 H         1 UNK         0.1032 
     83 H83       -72.4606   31.7979  -75.4600 H         1 UNK         0.0461 
     84 H84       -70.3705   34.6332  -75.0103 H         1 UNK         0.3453 
     85 H85       -71.6585   33.8981  -75.9279 H         1 UNK         0.3453 
     86 H86       -72.2182   29.9953  -73.3238 H         1 UNK         0.2984 
     87 H87       -69.5678   28.0405  -74.7175 H         1 UNK         0.0554 
     88 H88       -69.2279   27.6481  -72.2956 H         1 UNK         0.0847 
     89 H89       -70.2102   29.0574  -71.9007 H         1 UNK         0.0847 
     90 H90       -68.6876   29.2562  -72.7497 H         1 UNK         0.0847 
     91 H91       -71.3120   26.7252  -74.5765 H         1 UNK         0.3141 
     92 H92       -73.1270   25.5411  -72.9383 H         1 UNK         0.0743 
     93 H93       -75.3189   27.6568  -73.2070 H         1 UNK         0.0784 
     94 H94       -74.8232   26.8302  -71.7412 H         1 UNK         0.0784 
     95 H95       -75.6131   25.9296  -73.0257 H         1 UNK         0.0784 
     96 H96       -74.4970   26.5571  -75.3164 H         1 UNK         0.3213 
     97 H97       -72.3968   25.0358  -77.6443 H         1 UNK         0.0855 
     98 H98       -74.8272   23.4963  -76.5945 H         1 UNK         0.0814 
     99 H99       -73.2060   22.8431  -76.7713 H         1 UNK         0.0814 
    100 H100      -74.1104   23.3292  -78.1960 H         1 UNK         0.0814 
    101 H101      -75.2474   25.7363  -77.4976 H         1 UNK         0.3105 
    102 H102      -74.7894   29.1050  -78.3217 H         1 UNK         0.0547 
    103 H103      -74.4242   28.1507  -80.6049 H         1 UNK         0.0837 
    104 H104      -75.6754   26.9507  -80.3178 H         1 UNK         0.0837 
    105 H105      -76.0873   28.6652  -80.3887 H         1 UNK         0.0837 
    106 H106      -77.1503   27.5609  -78.3763 H         1 UNK         0.3020 
    107 H107      -77.7921   27.4893  -74.8585 H         1 UNK         0.1245 
    108 H108      -78.3929   29.8017  -75.7828 H         1 UNK         0.0781 
    109 H109      -79.1119   29.0244  -77.1645 H         1 UNK         0.0781 
    110 H110      -81.2115   29.9294  -73.3121 H         1 UNK         0.0836 
    111 H111      -80.1950   30.8961  -74.3477 H         1 UNK         0.0836 
    112 H112      -79.2961   26.5532  -77.1044 H         1 UNK         0.3022 
    113 H113      -78.5824   24.4302  -78.2721 H         1 UNK         0.0747 
    114 H114      -78.4074   21.9922  -77.6928 H         1 UNK         0.0793 
    115 H115      -76.8818   22.8426  -77.5492 H         1 UNK         0.0793 
    116 H116      -77.7848   22.4235  -76.1022 H         1 UNK         0.0793 
    117 H117      -80.1705   23.2975  -76.0577 H         1 UNK         0.3047 
    118 H118      -83.0168   25.2033  -76.6959 H         1 UNK         0.0822 
    119 H119      -84.2304   23.2483  -77.6460 H         1 UNK         0.0807 
    120 H120      -82.7036   22.5137  -78.1380 H         1 UNK         0.0807 
    121 H121      -83.2393   24.0180  -78.8731 H         1 UNK         0.0807 
    122 H122      -82.4727   22.4949  -75.6813 H         1 UNK         0.2946 
    123 H123      -83.0121   23.3840  -72.4613 H         1 UNK         0.1144 
    124 H124      -83.4627   21.4321  -73.9440 H         1 UNK         0.0793 
    125 H125      -82.4178   20.9826  -72.6126 H         1 UNK         0.0793 
    126 H126      -81.7368   21.2014  -74.2162 H         1 UNK         0.0793 
    127 H127      -80.9894   23.6635  -71.5898 H         1 UNK         0.2896 
@<TRIPOS>BOND
     1    1    2 1    
     2    1   67 1    
     3    1   68 1    
     4    1   69 1    
     5    2    3 2    
     6    2    4 am   BACKBONE|DICT|INTERRES
     7    4    5 1    
     8    4   70 1    
     9    5    6 1    
    10    5   65 1    
    11    5   71 1    
    12    6    7 1    
    13    6   72 1    
    14    6   73 1    
    15    7    8 1    
    16    8    9 1    
    17    8   74 1    
    18    8   75 1    
    19    9   10 ar   
    20    9   14 ar   
    21   10   11 ar   
    22   10   76 1    
    23   11   12 ar   
    24   11   48 1    
    25   12   13 ar   
    26   12   77 1    
    27   13   14 ar   
    28   13   15 1    
    29   14   78 1    
    30   15   16 1    
    31   15   79 1    
    32   15   80 1    
    33   16   17 1    
    34   17   18 1    
    35   17   81 1    
    36   17   82 1    
    37   18   19 1    
    38   18   22 1    
    39   18   83 1    
    40   19   20 am   BACKBONE|DICT|INTERRES
    41   19   21 2    
    42   20   84 1    
    43   20   85 1    
    44   22   23 am   BACKBONE|DICT|INTERRES
    45   22   86 1    
    46   23   24 2    
    47   23   25 1    
    48   25   26 1    
    49   25   27 1    
    50   25   87 1    
    51   26   88 1    
    52   26   89 1    
    53   26   90 1    
    54   27   28 am   BACKBONE|DICT|INTERRES
    55   27   91 1    
    56   28   29 2    
    57   28   30 1    
    58   30   31 1    
    59   30   32 1    
    60   30   92 1    
    61   31   93 1    
    62   31   94 1    
    63   31   95 1    
    64   32   33 am   BACKBONE|DICT|INTERRES
    65   32   96 1    
    66   33   34 2    
    67   33   35 1    
    68   35   36 1    
    69   35   37 1    
    70   35   97 1    
    71   36   98 1    
    72   36   99 1    
    73   36  100 1    
    74   37   38 am   BACKBONE|DICT|INTERRES
    75   37  101 1    
    76   38   39 2    
    77   38   40 1    
    78   40   41 1    
    79   40   42 1    
    80   40  102 1    
    81   41  103 1    
    82   41  104 1    
    83   41  105 1    
    84   42   43 am   BACKBONE|DICT|INTERRES
    85   42  106 1    
    86   43   44 2    
    87   43   45 1    
    88   45   46 1    
    89   45   49 1    
    90   45  107 1    
    91   46   47 1    
    92   46  108 1    
    93   46  109 1    
    94   47   48 1    
    95   48  110 1    
    96   48  111 1    
    97   49   50 am   BACKBONE|DICT|INTERRES
    98   49  112 1    
    99   50   51 2    
   100   50   52 1    
   101   52   53 1    
   102   52   54 1    
   103   52  113 1    
   104   53  114 1    
   105   53  115 1    
   106   53  116 1    
   107   54   55 am   BACKBONE|DICT|INTERRES
   108   54  117 1    
   109   55   56 2    
   110   55   57 1    
   111   57   58 1    
   112   57   59 1    
   113   57  118 1    
   114   58  119 1    
   115   58  120 1    
   116   58  121 1    
   117   59   60 am   BACKBONE|DICT|INTERRES
   118   59  122 1    
   119   60   61 2    
   120   60   62 1    
   121   62   63 1    
   122   62   64 1    
   123   62  123 1    
   124   63  124 1    
   125   63  125 1    
   126   63  126 1    
   127   64   65 am   BACKBONE|DICT|INTERRES
   128   64  127 1    
   129   65   66 2    
@<TRIPOS>SUBSTRUCTURE
     1 UNK         1 GROUP             0       ****    0 ROOT    
