@<TRIPOS>MOLECULE
3R135
127   129    1
SMALL
USER_CHARGES


@<TRIPOS>ATOM
      1 CA        -78.7979   26.8138  -78.4428 C.3       0 UNK        -0.1998 
      2 C         -79.0585   26.6797  -76.9519 C.2       0 UNK         0.4909 
      3 O         -78.8317   25.6104  -76.3845 O.2       0 UNK        -0.5240 
      4 N         -79.5395   27.7602  -76.3207 N.am      1 UNK        -0.4739 
      5 CA        -79.9687   27.8149  -74.9183 C.3       1 UNK         0.0864 
      6 C6        -80.3001   29.2727  -74.5093 C.3       11 UNK        -0.0881 
      7 S7        -80.7459   29.4823  -72.7502 S.3       11 UNK        -0.2682 
      8 C8        -79.2794   30.3288  -72.0615 C.3       11 UNK         0.0289 
      9 C9        -78.0871   29.4267  -71.7376 C.ar      11 UNK        -0.0687 
     10 C10       -78.2292   28.0572  -71.4836 C.ar      11 UNK        -0.0823 
     11 C11       -77.1211   27.2706  -71.1559 C.ar      11 UNK        -0.0830 
     12 C12       -75.8641   27.8699  -71.0387 C.ar      11 UNK        -0.1021 
     13 C13       -75.7029   29.2411  -71.2674 C.ar      11 UNK        -0.0753 
     14 C14       -76.8184   30.0051  -71.6263 C.ar      11 UNK        -0.0933 
     15 C15       -74.3561   29.9347  -71.0679 C.3       11 UNK         0.0166 
     16 S16       -72.9162   28.9540  -71.6059 S.3       11 UNK        -0.2615 
     17 C17       -71.5593   30.1430  -71.2912 C.3       11 UNK        -0.0865 
     18 CA        -70.6467   30.3927  -72.5221 C.3       10 UNK         0.0862 
     19 C         -69.6767   29.2068  -72.7831 C.2       10 UNK         0.5551 
     20 N         -69.8350   28.4280  -73.8454 N.am      10 UNK        -0.7319 
     21 O         -68.7387   29.0075  -72.0144 O.2       10 UNK        -0.5018 
     22 N         -71.4124   30.8183  -73.7034 N.am      10 UNK        -0.4509 
     23 C         -71.6636   32.0882  -74.0511 C.2       10 UNK         0.4899 
     24 O         -71.2497   33.0645  -73.4250 O.2       10 UNK        -0.4839 
     25 CA        -72.5257   32.3264  -75.3085 C.3       9 UNK         0.0222 
     26 CB        -71.6318   32.6308  -76.5215 C.3       9 UNK        -0.1966 
     27 N         -73.3839   31.1834  -75.6198 N.am      9 UNK        -0.4218 
     28 C         -74.4614   30.8244  -74.9106 C.2       9 UNK         0.5020 
     29 O         -74.9990   31.5636  -74.0855 O.2       9 UNK        -0.5274 
     30 CA        -75.0205   29.4008  -75.1274 C.3       8 UNK         0.0270 
     31 CB        -76.5221   29.4254  -75.4499 C.3       8 UNK        -0.1976 
     32 N         -74.3313   28.5825  -76.1355 N.am      8 UNK        -0.4313 
     33 C         -73.0707   28.1342  -76.0720 C.2       8 UNK         0.5041 
     34 O         -72.2776   28.4745  -75.1933 O.2       8 UNK        -0.5577 
     35 CA        -72.6214   27.1676  -77.1834 C.3       7 UNK         0.0284 
     36 CB        -71.2060   26.6105  -76.9421 C.3       7 UNK        -0.1958 
     37 N         -73.5524   26.0471  -77.3243 N.am      7 UNK        -0.4454 
     38 C         -74.7046   26.0681  -78.0017 C.2       7 UNK         0.5089 
     39 O         -75.1239   27.0655  -78.5888 O.2       7 UNK        -0.5125 
     40 CA        -75.5504   24.7843  -77.9824 C.3       6 UNK         0.0408 
     41 CB        -74.7867   23.5754  -78.5590 C.3       6 UNK        -0.1791 
     42 N         -76.1190   24.4858  -76.6634 N.am      6 UNK        -0.4762 
     43 C         -75.4823   24.1791  -75.5216 C.2       6 UNK         0.5007 
     44 O         -74.2581   24.1030  -75.4053 O.2       6 UNK        -0.5032 
     45 CA        -76.3827   23.8761  -74.3104 C.3       5 UNK         0.0783 
     46 C46       -76.8597   25.1912  -73.6446 C.3       11 UNK        -0.0857 
     47 S47       -78.0682   24.9176  -72.3042 S.3       11 UNK        -0.2512 
     48 C48       -77.2844   25.7771  -70.9020 C.3       11 UNK         0.0225 
     49 N         -77.4854   22.9837  -74.6891 N.am      5 UNK        -0.4615 
     50 C         -77.3345   21.6869  -74.9946 C.2       4 UNK         0.5053 
     51 O         -76.2451   21.1125  -74.9979 O.2       4 UNK        -0.5105 
     52 CA        -78.5968   20.8701  -75.3206 C.3       4 UNK         0.0263 
     53 CB        -78.9481   19.9403  -74.1474 C.3       4 UNK        -0.1981 
     54 N         -79.7670   21.6899  -75.6309 N.am      4 UNK        -0.4224 
     55 C         -79.9999   22.3111  -76.7914 C.2       3 UNK         0.4895 
     56 O         -79.2314   22.2730  -77.7525 O.2       3 UNK        -0.5091 
     57 CA        -81.3163   23.1023  -76.9069 C.3       3 UNK         0.0250 
     58 CB        -82.4999   22.1656  -77.2162 C.3       3 UNK        -0.1996 
     59 N         -81.6113   23.9797  -75.7640 N.am      3 UNK        -0.4254 
     60 C         -81.8581   23.6779  -74.4800 C.2       2 UNK         0.5004 
     61 O         -81.9050   22.5242  -74.0492 O.2       2 UNK        -0.5226 
     62 CA        -82.0335   24.8675  -73.5106 C.3       2 UNK         0.0269 
     63 CB        -81.9362   24.4436  -72.0330 C.3       2 UNK        -0.1926 
     64 N         -81.0518   25.9288  -73.7619 N.am      2 UNK        -0.4687 
     65 C         -81.1665   26.8650  -74.7122 C.2       1 UNK         0.5165 
     66 O         -82.1486   26.9593  -75.4524 O.2       1 UNK        -0.5079 
     67 H67       -77.7830   27.1662  -78.6181 H         1 UNK         0.0900 
     68 H68       -79.4901   27.5168  -78.9057 H         1 UNK         0.0900 
     69 H69       -78.9176   25.8500  -78.9371 H         1 UNK         0.0900 
     70 H70       -79.7224   28.5939  -76.8602 H         1 UNK         0.2959 
     71 H71       -79.1343   27.4687  -74.3055 H         1 UNK         0.1079 
     72 H72       -79.4552   29.9222  -74.7388 H         1 UNK         0.0837 
     73 H73       -81.1299   29.6525  -75.1087 H         1 UNK         0.0837 
     74 H74       -78.9754   31.1243  -72.7438 H         1 UNK         0.0685 
     75 H75       -79.5825   30.8218  -71.1371 H         1 UNK         0.0685 
     76 H76       -79.2023   27.5905  -71.5330 H         1 UNK         0.1434 
     77 H77       -75.0115   27.2695  -70.7530 H         1 UNK         0.1329 
     78 H78       -76.7013   31.0669  -71.7977 H         1 UNK         0.1335 
     79 H79       -74.3413   30.8857  -71.6017 H         1 UNK         0.0680 
     80 H80       -74.2447   30.1710  -70.0090 H         1 UNK         0.0680 
     81 H81       -70.9744   29.7885  -70.4404 H         1 UNK         0.1032 
     82 H82       -71.9812   31.0963  -70.9700 H         1 UNK         0.1032 
     83 H83       -69.9790   31.2134  -72.2530 H         1 UNK         0.0461 
     84 H84       -69.1844   27.6755  -73.9997 H         1 UNK         0.3453 
     85 H85       -70.6713   28.4975  -74.4217 H         1 UNK         0.3453 
     86 H86       -71.7939   30.0602  -74.2629 H         1 UNK         0.2984 
     87 H87       -73.1589   33.1961  -75.1211 H         1 UNK         0.0554 
     88 H88       -72.2263   32.8541  -77.4076 H         1 UNK         0.0847 
     89 H89       -70.9728   31.7946  -76.7594 H         1 UNK         0.0847 
     90 H90       -70.9994   33.4990  -76.3306 H         1 UNK         0.0847 
     91 H91       -73.0128   30.5023  -76.2656 H         1 UNK         0.3141 
     92 H92       -74.8997   28.8886  -74.1704 H         1 UNK         0.0743 
     93 H93       -76.9331   28.4167  -75.4576 H         1 UNK         0.0784 
     94 H94       -77.0735   29.9894  -74.6971 H         1 UNK         0.0784 
     95 H95       -76.7223   29.8841  -76.4187 H         1 UNK         0.0784 
     96 H96       -74.8840   28.2751  -76.9292 H         1 UNK         0.3213 
     97 H97       -72.6020   27.7345  -78.1168 H         1 UNK         0.0855 
     98 H98       -70.4718   27.4154  -76.8872 H         1 UNK         0.0814 
     99 H99       -70.8968   25.9479  -77.7505 H         1 UNK         0.0814 
    100 H100      -71.1478   26.0506  -76.0076 H         1 UNK         0.0814 
    101 H101      -73.3788   25.2295  -76.7463 H         1 UNK         0.3105 
    102 H102      -76.4046   24.9619  -78.6370 H         1 UNK         0.0547 
    103 H103      -74.4174   23.7917  -79.5622 H         1 UNK         0.0837 
    104 H104      -73.9262   23.2956  -77.9510 H         1 UNK         0.0837 
    105 H105      -75.4357   22.7029  -78.6348 H         1 UNK         0.0837 
    106 H106      -77.1304   24.5793  -76.6075 H         1 UNK         0.3020 
    107 H107      -75.7687   23.3424  -73.5808 H         1 UNK         0.1245 
    108 H108      -77.3189   25.8604  -74.3707 H         1 UNK         0.0781 
    109 H109      -75.9980   25.7352  -73.2532 H         1 UNK         0.0781 
    110 H110      -76.3230   25.3058  -70.6915 H         1 UNK         0.0836 
    111 H111      -77.8990   25.6346  -70.0122 H         1 UNK         0.0836 
    112 H112      -78.4076   23.3929  -74.7185 H         1 UNK         0.3022 
    113 H113      -78.3681   20.2519  -76.1913 H         1 UNK         0.0747 
    114 H114      -79.7971   19.3005  -74.3889 H         1 UNK         0.0793 
    115 H115      -78.1108   19.2859  -73.9006 H         1 UNK         0.0793 
    116 H116      -79.1983   20.5047  -73.2479 H         1 UNK         0.0793 
    117 H117      -80.4731   21.7927  -74.9036 H         1 UNK         0.3047 
    118 H118      -81.1968   23.7717  -77.7605 H         1 UNK         0.0822 
    119 H119      -83.4166   22.7298  -77.3879 H         1 UNK         0.0807 
    120 H120      -82.6875   21.4606  -76.4058 H         1 UNK         0.0807 
    121 H121      -82.3069   21.5798  -78.1160 H         1 UNK         0.0807 
    122 H122      -81.5829   24.9692  -75.9803 H         1 UNK         0.2946 
    123 H123      -83.0383   25.2634  -73.6765 H         1 UNK         0.1144 
    124 H124      -82.0685   25.2954  -71.3656 H         1 UNK         0.0793 
    125 H125      -80.9727   23.9858  -71.8065 H         1 UNK         0.0793 
    126 H126      -82.7093   23.7159  -71.7825 H         1 UNK         0.0793 
    127 H127      -80.1921   25.8692  -73.2325 H         1 UNK         0.2896 
@<TRIPOS>BOND
     1    1    2 1    
     2    1   67 1    
     3    1   68 1    
     4    1   69 1    
     5    2    3 2    
     6    2    4 am   BACKBONE|DICT|INTERRES
     7    4    5 1    
     8    4   70 1    
     9    5    6 1    
    10    5   65 1    
    11    5   71 1    
    12    6    7 1    
    13    6   72 1    
    14    6   73 1    
    15    7    8 1    
    16    8    9 1    
    17    8   74 1    
    18    8   75 1    
    19    9   10 ar   
    20    9   14 ar   
    21   10   11 ar   
    22   10   76 1    
    23   11   12 ar   
    24   11   48 1    
    25   12   13 ar   
    26   12   77 1    
    27   13   14 ar   
    28   13   15 1    
    29   14   78 1    
    30   15   16 1    
    31   15   79 1    
    32   15   80 1    
    33   16   17 1    
    34   17   18 1    
    35   17   81 1    
    36   17   82 1    
    37   18   19 1    
    38   18   22 1    
    39   18   83 1    
    40   19   20 am   BACKBONE|DICT|INTERRES
    41   19   21 2    
    42   20   84 1    
    43   20   85 1    
    44   22   23 am   BACKBONE|DICT|INTERRES
    45   22   86 1    
    46   23   24 2    
    47   23   25 1    
    48   25   26 1    
    49   25   27 1    
    50   25   87 1    
    51   26   88 1    
    52   26   89 1    
    53   26   90 1    
    54   27   28 am   BACKBONE|DICT|INTERRES
    55   27   91 1    
    56   28   29 2    
    57   28   30 1    
    58   30   31 1    
    59   30   32 1    
    60   30   92 1    
    61   31   93 1    
    62   31   94 1    
    63   31   95 1    
    64   32   33 am   BACKBONE|DICT|INTERRES
    65   32   96 1    
    66   33   34 2    
    67   33   35 1    
    68   35   36 1    
    69   35   37 1    
    70   35   97 1    
    71   36   98 1    
    72   36   99 1    
    73   36  100 1    
    74   37   38 am   BACKBONE|DICT|INTERRES
    75   37  101 1    
    76   38   39 2    
    77   38   40 1    
    78   40   41 1    
    79   40   42 1    
    80   40  102 1    
    81   41  103 1    
    82   41  104 1    
    83   41  105 1    
    84   42   43 am   BACKBONE|DICT|INTERRES
    85   42  106 1    
    86   43   44 2    
    87   43   45 1    
    88   45   46 1    
    89   45   49 1    
    90   45  107 1    
    91   46   47 1    
    92   46  108 1    
    93   46  109 1    
    94   47   48 1    
    95   48  110 1    
    96   48  111 1    
    97   49   50 am   BACKBONE|DICT|INTERRES
    98   49  112 1    
    99   50   51 2    
   100   50   52 1    
   101   52   53 1    
   102   52   54 1    
   103   52  113 1    
   104   53  114 1    
   105   53  115 1    
   106   53  116 1    
   107   54   55 am   BACKBONE|DICT|INTERRES
   108   54  117 1    
   109   55   56 2    
   110   55   57 1    
   111   57   58 1    
   112   57   59 1    
   113   57  118 1    
   114   58  119 1    
   115   58  120 1    
   116   58  121 1    
   117   59   60 am   BACKBONE|DICT|INTERRES
   118   59  122 1    
   119   60   61 2    
   120   60   62 1    
   121   62   63 1    
   122   62   64 1    
   123   62  123 1    
   124   63  124 1    
   125   63  125 1    
   126   63  126 1    
   127   64   65 am   BACKBONE|DICT|INTERRES
   128   64  127 1    
   129   65   66 2    
@<TRIPOS>SUBSTRUCTURE
     1 UNK         1 GROUP             0       ****    0 ROOT    
