@<TRIPOS>MOLECULE
3R135
127   129    1
SMALL
USER_CHARGES


@<TRIPOS>ATOM
      1 CA        -84.3502   27.6550  -70.2304 C.3       0 UNK        -0.1998 
      2 C         -84.3176   27.6092  -71.7505 C.2       0 UNK         0.4909 
      3 O         -85.2010   27.0103  -72.3648 O.2       0 UNK        -0.5240 
      4 N         -83.3064   28.2396  -72.3618 N.am      1 UNK        -0.4739 
      5 CA        -83.0869   28.2784  -73.8141 C.3       1 UNK         0.0864 
      6 C6        -82.1203   29.4195  -74.2314 C.3       11 UNK        -0.0881 
      7 S7        -80.6044   29.5404  -73.2170 S.3       11 UNK        -0.2682 
      8 C8        -79.3878   28.7361  -74.2998 C.3       11 UNK         0.0289 
      9 C9        -78.0485   28.5742  -73.5993 C.ar      11 UNK        -0.0687 
     10 C10       -77.9158   27.6454  -72.5648 C.ar      11 UNK        -0.0823 
     11 C11       -76.6851   27.4564  -71.9295 C.ar      11 UNK        -0.0830 
     12 C12       -75.5757   28.1986  -72.3466 C.ar      11 UNK        -0.1021 
     13 C13       -75.6968   29.1361  -73.3776 C.ar      11 UNK        -0.0753 
     14 C14       -76.9393   29.3292  -73.9916 C.ar      11 UNK        -0.0933 
     15 C15       -74.4852   29.9325  -73.8378 C.3       11 UNK         0.0166 
     16 S16       -74.1491   31.3167  -72.7050 S.3       11 UNK        -0.2615 
     17 C17       -73.3141   32.5279  -73.7931 C.3       11 UNK        -0.0865 
     18 CA        -71.7742   32.7109  -73.6151 C.3       10 UNK         0.0862 
     19 C         -71.2560   33.0144  -72.1735 C.2       10 UNK         0.5551 
     20 N         -72.0840   33.5619  -71.2937 N.am      10 UNK        -0.7319 
     21 O         -70.0790   32.8315  -71.8664 O.2       10 UNK        -0.5018 
     22 N         -70.9860   31.7227  -74.3700 N.am      10 UNK        -0.4509 
     23 C         -70.6774   30.4705  -74.0110 C.2       10 UNK         0.4899 
     24 O         -71.0348   29.9230  -72.9660 O.2       10 UNK        -0.4839 
     25 CA        -69.7569   29.7184  -74.9898 C.3       9 UNK         0.0222 
     26 CB        -68.2816   29.9537  -74.6247 C.3       9 UNK        -0.1966 
     27 N         -70.0216   28.2787  -75.0070 N.am      9 UNK        -0.4218 
     28 C         -71.1385   27.7158  -75.4845 C.2       9 UNK         0.5020 
     29 O         -72.0518   28.3511  -76.0178 O.2       9 UNK        -0.5274 
     30 CA        -71.2450   26.1908  -75.3084 C.3       8 UNK         0.0270 
     31 CB        -71.5236   25.8384  -73.8361 C.3       8 UNK        -0.1976 
     32 N         -72.3068   25.6257  -76.1436 N.am      8 UNK        -0.4313 
     33 C         -72.1944   25.3710  -77.4561 C.2       8 UNK         0.5041 
     34 O         -71.1415   25.4996  -78.0838 O.2       8 UNK        -0.5577 
     35 CA        -73.4487   24.8752  -78.2077 C.3       7 UNK         0.0284 
     36 CB        -73.3973   23.3501  -78.3940 C.3       7 UNK        -0.1958 
     37 N         -74.7022   25.2269  -77.5404 N.am      7 UNK        -0.4454 
     38 C         -75.1964   26.4678  -77.4383 C.2       7 UNK         0.5089 
     39 O         -74.7461   27.4302  -78.0603 O.2       7 UNK        -0.5125 
     40 CA        -76.3807   26.6873  -76.4739 C.3       6 UNK         0.0408 
     41 CB        -77.6523   27.0375  -77.2622 C.3       6 UNK        -0.1791 
     42 N         -76.6684   25.5751  -75.5558 N.am      6 UNK        -0.4762 
     43 C         -75.8210   25.0587  -74.6509 C.2       6 UNK         0.5007 
     44 O         -74.6629   25.4480  -74.5137 O.2       6 UNK        -0.5032 
     45 CA        -76.3068   23.8446  -73.8324 C.3       5 UNK         0.0783 
     46 C46       -76.9739   24.2384  -72.4945 C.3       11 UNK        -0.0857 
     47 S47       -75.7820   24.8983  -71.2793 S.3       11 UNK        -0.2512 
     48 C48       -76.5643   26.4654  -70.7800 C.3       11 UNK         0.0225 
     49 N         -77.1935   23.0003  -74.6343 N.am      5 UNK        -0.4615 
     50 C         -76.7745   22.1049  -75.5380 C.2       4 UNK         0.5053 
     51 O         -75.5891   21.8569  -75.7561 O.2       4 UNK        -0.5105 
     52 CA        -77.8610   21.3716  -76.3439 C.3       4 UNK         0.0263 
     53 CB        -78.3127   20.1009  -75.6066 C.3       4 UNK        -0.1981 
     54 N         -79.0261   22.2162  -76.6196 N.am      4 UNK        -0.4224 
     55 C         -79.0167   23.2627  -77.4575 C.2       3 UNK         0.4895 
     56 O         -78.0464   23.5784  -78.1459 O.2       3 UNK        -0.5091 
     57 CA        -80.2952   24.1173  -77.5243 C.3       3 UNK         0.0250 
     58 CB        -81.2102   23.6236  -78.6562 C.3       3 UNK        -0.1996 
     59 N         -81.0595   24.1754  -76.2720 N.am      3 UNK        -0.4254 
     60 C         -80.6042   24.6592  -75.1076 C.2       2 UNK         0.5004 
     61 O         -79.4469   25.0425  -74.9294 O.2       2 UNK        -0.5226 
     62 CA        -81.6022   24.7012  -73.9376 C.3       2 UNK         0.0269 
     63 CB        -81.0096   24.0295  -72.6867 C.3       2 UNK        -0.1926 
     64 N         -82.0123   26.0662  -73.5965 N.am      2 UNK        -0.4687 
     65 C         -82.6707   26.9121  -74.4044 C.2       1 UNK         0.5165 
     66 O         -82.9869   26.6414  -75.5638 O.2       1 UNK        -0.5079 
     67 H67       -83.5141   28.2222  -69.8216 H         1 UNK         0.0900 
     68 H68       -84.3060   26.6450  -69.8237 H         1 UNK         0.0900 
     69 H69       -85.2744   28.1202  -69.8888 H         1 UNK         0.0900 
     70 H70       -82.6081   28.7228  -71.8128 H         1 UNK         0.2959 
     71 H71       -84.0534   28.5037  -74.2714 H         1 UNK         0.1079 
     72 H72       -81.8606   29.3524  -75.2901 H         1 UNK         0.0837 
     73 H73       -82.6418   30.3723  -74.1286 H         1 UNK         0.0837 
     74 H74       -79.7561   27.7531  -74.5939 H         1 UNK         0.0685 
     75 H75       -79.2791   29.3170  -75.2170 H         1 UNK         0.0685 
     76 H76       -78.7788   27.0712  -72.2570 H         1 UNK         0.1434 
     77 H77       -74.6175   28.0498  -71.8677 H         1 UNK         0.1329 
     78 H78       -77.0369   30.0519  -74.7899 H         1 UNK         0.1335 
     79 H79       -73.6104   29.2827  -73.8846 H         1 UNK         0.0680 
     80 H80       -74.6480   30.3004  -74.8516 H         1 UNK         0.0680 
     81 H81       -73.8037   33.4879  -73.6220 H         1 UNK         0.1032 
     82 H82       -73.5345   32.2972  -74.8359 H         1 UNK         0.1032 
     83 H83       -71.5416   33.6378  -74.1410 H         1 UNK         0.0461 
     84 H84       -73.0557   33.7042  -71.5197 H         1 UNK         0.3453 
     85 H85       -71.7436   33.7861  -70.3720 H         1 UNK         0.3453 
     86 H86       -70.5939   32.0699  -75.2334 H         1 UNK         0.2984 
     87 H87       -69.9287   30.1009  -75.9984 H         1 UNK         0.0554 
     88 H88       -67.6120   29.4672  -75.3343 H         1 UNK         0.0847 
     89 H89       -68.0478   29.5777  -73.6277 H         1 UNK         0.0847 
     90 H90       -68.0412   31.0178  -74.6330 H         1 UNK         0.0847 
     91 H91       -69.3412   27.6905  -74.5482 H         1 UNK         0.3141 
     92 H92       -70.2942   25.7397  -75.6005 H         1 UNK         0.0743 
     93 H93       -72.4100   26.3516  -73.4601 H         1 UNK         0.0784 
     94 H94       -71.6762   24.7671  -73.7036 H         1 UNK         0.0784 
     95 H95       -70.6894   26.1276  -73.1959 H         1 UNK         0.0784 
     96 H96       -73.2192   25.5461  -75.6989 H         1 UNK         0.3213 
     97 H97       -73.4459   25.3432  -79.1945 H         1 UNK         0.0855 
     98 H98       -73.4069   22.8263  -77.4370 H         1 UNK         0.0814 
     99 H99       -72.4898   23.0515  -78.9206 H         1 UNK         0.0814 
    100 H100      -74.2442   22.9923  -78.9801 H         1 UNK         0.0814 
    101 H101      -75.1607   24.4970  -77.0137 H         1 UNK         0.3105 
    102 H102      -76.1159   27.5436  -75.8548 H         1 UNK         0.0547 
    103 H103      -77.5238   27.9721  -77.8094 H         1 UNK         0.0837 
    104 H104      -77.8917   26.2667  -77.9940 H         1 UNK         0.0837 
    105 H105      -78.5138   27.1605  -76.6077 H         1 UNK         0.0837 
    106 H106      -77.6259   25.2341  -75.5497 H         1 UNK         0.3020 
    107 H107      -75.4178   23.2559  -73.5918 H         1 UNK         0.1245 
    108 H108      -77.4312   23.3587  -72.0389 H         1 UNK         0.0781 
    109 H109      -77.7913   24.9373  -72.6644 H         1 UNK         0.0781 
    110 H110      -75.9726   26.9129  -69.9801 H         1 UNK         0.0836 
    111 H111      -77.5438   26.2545  -70.3477 H         1 UNK         0.0836 
    112 H112      -78.1814   23.2021  -74.5658 H         1 UNK         0.3022 
    113 H113      -77.4211   21.0748  -77.2987 H         1 UNK         0.0747 
    114 H114      -79.0293   19.5318  -76.1992 H         1 UNK         0.0793 
    115 H115      -77.4646   19.4436  -75.4088 H         1 UNK         0.0793 
    116 H116      -78.7769   20.3313  -74.6468 H         1 UNK         0.0793 
    117 H117      -79.8742   22.0155  -76.1100 H         1 UNK         0.3047 
    118 H118      -79.9901   25.1383  -77.7596 H         1 UNK         0.0822 
    119 H119      -82.0683   24.2828  -78.7895 H         1 UNK         0.0807 
    120 H120      -81.5847   22.6172  -78.4644 H         1 UNK         0.0807 
    121 H121      -80.6755   23.5966  -79.6070 H         1 UNK         0.0807 
    122 H122      -82.0306   23.9035  -76.3317 H         1 UNK         0.2946 
    123 H123      -82.4988   24.1467  -74.2234 H         1 UNK         0.1144 
    124 H124      -81.7512   23.9505  -71.8915 H         1 UNK         0.0793 
    125 H125      -80.1580   24.5854  -72.2937 H         1 UNK         0.0793 
    126 H126      -80.6660   23.0181  -72.9082 H         1 UNK         0.0793 
    127 H127      -81.7917   26.3866  -72.6654 H         1 UNK         0.2896 
@<TRIPOS>BOND
     1    1    2 1    
     2    1   67 1    
     3    1   68 1    
     4    1   69 1    
     5    2    3 2    
     6    2    4 am   BACKBONE|DICT|INTERRES
     7    4    5 1    
     8    4   70 1    
     9    5    6 1    
    10    5   65 1    
    11    5   71 1    
    12    6    7 1    
    13    6   72 1    
    14    6   73 1    
    15    7    8 1    
    16    8    9 1    
    17    8   74 1    
    18    8   75 1    
    19    9   10 ar   
    20    9   14 ar   
    21   10   11 ar   
    22   10   76 1    
    23   11   12 ar   
    24   11   48 1    
    25   12   13 ar   
    26   12   77 1    
    27   13   14 ar   
    28   13   15 1    
    29   14   78 1    
    30   15   16 1    
    31   15   79 1    
    32   15   80 1    
    33   16   17 1    
    34   17   18 1    
    35   17   81 1    
    36   17   82 1    
    37   18   19 1    
    38   18   22 1    
    39   18   83 1    
    40   19   20 am   BACKBONE|DICT|INTERRES
    41   19   21 2    
    42   20   84 1    
    43   20   85 1    
    44   22   23 am   BACKBONE|DICT|INTERRES
    45   22   86 1    
    46   23   24 2    
    47   23   25 1    
    48   25   26 1    
    49   25   27 1    
    50   25   87 1    
    51   26   88 1    
    52   26   89 1    
    53   26   90 1    
    54   27   28 am   BACKBONE|DICT|INTERRES
    55   27   91 1    
    56   28   29 2    
    57   28   30 1    
    58   30   31 1    
    59   30   32 1    
    60   30   92 1    
    61   31   93 1    
    62   31   94 1    
    63   31   95 1    
    64   32   33 am   BACKBONE|DICT|INTERRES
    65   32   96 1    
    66   33   34 2    
    67   33   35 1    
    68   35   36 1    
    69   35   37 1    
    70   35   97 1    
    71   36   98 1    
    72   36   99 1    
    73   36  100 1    
    74   37   38 am   BACKBONE|DICT|INTERRES
    75   37  101 1    
    76   38   39 2    
    77   38   40 1    
    78   40   41 1    
    79   40   42 1    
    80   40  102 1    
    81   41  103 1    
    82   41  104 1    
    83   41  105 1    
    84   42   43 am   BACKBONE|DICT|INTERRES
    85   42  106 1    
    86   43   44 2    
    87   43   45 1    
    88   45   46 1    
    89   45   49 1    
    90   45  107 1    
    91   46   47 1    
    92   46  108 1    
    93   46  109 1    
    94   47   48 1    
    95   48  110 1    
    96   48  111 1    
    97   49   50 am   BACKBONE|DICT|INTERRES
    98   49  112 1    
    99   50   51 2    
   100   50   52 1    
   101   52   53 1    
   102   52   54 1    
   103   52  113 1    
   104   53  114 1    
   105   53  115 1    
   106   53  116 1    
   107   54   55 am   BACKBONE|DICT|INTERRES
   108   54  117 1    
   109   55   56 2    
   110   55   57 1    
   111   57   58 1    
   112   57   59 1    
   113   57  118 1    
   114   58  119 1    
   115   58  120 1    
   116   58  121 1    
   117   59   60 am   BACKBONE|DICT|INTERRES
   118   59  122 1    
   119   60   61 2    
   120   60   62 1    
   121   62   63 1    
   122   62   64 1    
   123   62  123 1    
   124   63  124 1    
   125   63  125 1    
   126   63  126 1    
   127   64   65 am   BACKBONE|DICT|INTERRES
   128   64  127 1    
   129   65   66 2    
@<TRIPOS>SUBSTRUCTURE
     1 UNK         1 GROUP             0       ****    0 ROOT    
