@<TRIPOS>MOLECULE
3R135
127   129    1
SMALL
USER_CHARGES


@<TRIPOS>ATOM
      1 CA        -84.1799   31.4611  -75.5074 C.3       0 UNK        -0.1998 
      2 C         -83.0921   30.4094  -75.3462 C.2       0 UNK         0.4909 
      3 O         -82.1745   30.3476  -76.1656 O.2       0 UNK        -0.5240 
      4 N         -83.1828   29.5883  -74.2923 N.am      1 UNK        -0.4739 
      5 CA        -82.2663   28.4753  -74.0228 C.3       1 UNK         0.0864 
      6 C6        -82.3123   28.0649  -72.5280 C.3       11 UNK        -0.0881 
      7 S7        -80.7407   27.3112  -71.9927 S.3       11 UNK        -0.2682 
      8 C8        -80.0055   28.6616  -71.0165 C.3       11 UNK         0.0289 
      9 C9        -78.5142   28.4455  -70.8011 C.ar      11 UNK        -0.0687 
     10 C10       -78.0497   27.2710  -70.2025 C.ar      11 UNK        -0.0823 
     11 C11       -76.6795   27.0458  -70.0458 C.ar      11 UNK        -0.0830 
     12 C12       -75.7685   28.0248  -70.4542 C.ar      11 UNK        -0.1021 
     13 C13       -76.2221   29.2141  -71.0319 C.ar      11 UNK        -0.0753 
     14 C14       -77.5945   29.4168  -71.2073 C.ar      11 UNK        -0.0933 
     15 C15       -75.2370   30.2852  -71.4688 C.3       11 UNK         0.0166 
     16 S16       -74.9188   30.1919  -73.2557 S.3       11 UNK        -0.2615 
     17 C17       -74.0112   31.7574  -73.5209 C.3       11 UNK        -0.0865 
     18 CA        -72.5230   31.5697  -73.9163 C.3       10 UNK         0.0862 
     19 C         -71.6212   31.1291  -72.7238 C.2       10 UNK         0.5551 
     20 N         -70.7473   30.1393  -72.8702 N.am      10 UNK        -0.7319 
     21 O         -71.7033   31.7110  -71.6449 O.2       10 UNK        -0.5018 
     22 N         -72.4039   30.7300  -75.1146 N.am      10 UNK        -0.4509 
     23 C         -71.4683   30.8468  -76.0613 C.2       10 UNK         0.4899 
     24 O         -70.6222   31.7419  -76.0906 O.2       10 UNK        -0.4839 
     25 CA        -71.4875   29.7485  -77.1396 C.3       9 UNK         0.0222 
     26 CB        -70.2689   29.8046  -78.0855 C.3       9 UNK        -0.1966 
     27 N         -71.6432   28.4062  -76.5623 N.am      9 UNK        -0.4218 
     28 C         -70.8138   27.7909  -75.7004 C.2       9 UNK         0.5020 
     29 O         -69.8019   28.3200  -75.2385 O.2       9 UNK        -0.5274 
     30 CA        -71.1668   26.3607  -75.2375 C.3       8 UNK         0.0270 
     31 CB        -71.4511   26.3476  -73.7255 C.3       8 UNK        -0.1976 
     32 N         -72.3066   25.7681  -75.9435 N.am      8 UNK        -0.4313 
     33 C         -72.3064   25.3993  -77.2348 C.2       8 UNK         0.5041 
     34 O         -71.2914   25.3830  -77.9319 O.2       8 UNK        -0.5577 
     35 CA        -73.6590   25.0357  -77.8840 C.3       7 UNK         0.0284 
     36 CB        -73.7430   23.5228  -78.1396 C.3       7 UNK        -0.1958 
     37 N         -74.8367   25.4693  -77.1216 N.am      7 UNK        -0.4454 
     38 C         -75.1327   26.7395  -76.8017 C.2       7 UNK         0.5089 
     39 O         -74.4911   27.7080  -77.2122 O.2       7 UNK        -0.5125 
     40 CA        -76.2752   26.9699  -75.7922 C.3       6 UNK         0.0408 
     41 CB        -77.5365   27.4797  -76.5050 C.3       6 UNK        -0.1791 
     42 N         -76.6032   25.8002  -74.9611 N.am      6 UNK        -0.4762 
     43 C         -75.7471   25.2210  -74.0998 C.2       6 UNK         0.5007 
     44 O         -74.5777   25.5884  -73.9821 O.2       6 UNK        -0.5032 
     45 CA        -76.2213   23.9963  -73.2926 C.3       5 UNK         0.0783 
     46 C46       -76.7594   24.3673  -71.8888 C.3       11 UNK        -0.0857 
     47 S47       -75.4019   24.6683  -70.7019 S.3       11 UNK        -0.2512 
     48 C48       -76.1890   25.7342  -69.4521 C.3       11 UNK         0.0225 
     49 N         -77.1755   23.1866  -74.0549 N.am      5 UNK        -0.4615 
     50 C         -77.0802   21.8566  -74.1975 C.2       4 UNK         0.5053 
     51 O         -76.2358   21.1665  -73.6252 O.2       4 UNK        -0.5105 
     52 CA        -78.0769   21.1596  -75.1451 C.3       4 UNK         0.0263 
     53 CB        -79.2249   20.5283  -74.3406 C.3       4 UNK        -0.1981 
     54 N         -78.6431   22.0310  -76.1770 N.am      4 UNK        -0.4224 
     55 C         -77.9484   22.7104  -77.1010 C.2       3 UNK         0.4895 
     56 O         -76.7293   22.6292  -77.2394 O.2       3 UNK        -0.5091 
     57 CA        -78.7355   23.6883  -77.9916 C.3       3 UNK         0.0250 
     58 CB        -78.9788   23.0694  -79.3772 C.3       3 UNK        -0.1996 
     59 N         -80.0170   24.1429  -77.4326 N.am      3 UNK        -0.4254 
     60 C         -80.1839   24.7744  -76.2619 C.2       2 UNK         0.5004 
     61 O         -79.2720   24.9937  -75.4568 O.2       2 UNK        -0.5226 
     62 CA        -81.6165   25.1779  -75.9084 C.3       2 UNK         0.0269 
     63 CB        -82.3268   24.0427  -75.1484 C.3       2 UNK        -0.1926 
     64 N         -81.5679   26.3778  -75.0812 N.am      2 UNK        -0.4687 
     65 C         -82.5502   27.2754  -74.9557 C.2       1 UNK         0.5165 
     66 O         -83.6451   27.1670  -75.5162 O.2       1 UNK        -0.5079 
     67 H67       -84.9165   31.4123  -74.7057 H         1 UNK         0.0900 
     68 H68       -84.6999   31.3199  -76.4546 H         1 UNK         0.0900 
     69 H69       -83.7412   32.4585  -75.5043 H         1 UNK         0.0900 
     70 H70       -83.9792   29.6613  -73.6753 H         1 UNK         0.2959 
     71 H71       -81.2597   28.8341  -74.2525 H         1 UNK         0.1079 
     72 H72       -83.1316   27.3715  -72.3264 H         1 UNK         0.0837 
     73 H73       -82.5064   28.9348  -71.8981 H         1 UNK         0.0837 
     74 H74       -80.1809   29.6092  -71.5285 H         1 UNK         0.0685 
     75 H75       -80.5080   28.7271  -70.0505 H         1 UNK         0.0685 
     76 H76       -78.7592   26.5166  -69.8905 H         1 UNK         0.1434 
     77 H77       -74.7072   27.8528  -70.3352 H         1 UNK         0.1329 
     78 H78       -77.9423   30.3311  -71.6685 H         1 UNK         0.1335 
     79 H79       -74.2941   30.1876  -70.9282 H         1 UNK         0.0680 
     80 H80       -75.6397   31.2677  -71.2173 H         1 UNK         0.0680 
     81 H81       -74.5241   32.2969  -74.3185 H         1 UNK         0.1032 
     82 H82       -74.0980   32.4029  -72.6450 H         1 UNK         0.1032 
     83 H83       -72.1555   32.5636  -74.1785 H         1 UNK         0.0461 
     84 H84       -70.6201   29.6793  -73.7619 H         1 UNK         0.3453 
     85 H85       -70.1704   29.8786  -72.0868 H         1 UNK         0.3453 
     86 H86       -73.0486   29.9538  -75.1610 H         1 UNK         0.2984 
     87 H87       -72.3798   29.9259  -77.7419 H         1 UNK         0.0554 
     88 H88       -70.3221   29.0264  -78.8468 H         1 UNK         0.0847 
     89 H89       -69.3293   29.6818  -77.5459 H         1 UNK         0.0847 
     90 H90       -70.2216   30.7627  -78.6046 H         1 UNK         0.0847 
     91 H91       -72.4921   27.9203  -76.8356 H         1 UNK         0.3141 
     92 H92       -70.2919   25.7355  -75.4265 H         1 UNK         0.0743 
     93 H93       -71.6831   25.3429  -73.3714 H         1 UNK         0.0784 
     94 H94       -70.5863   26.6974  -73.1599 H         1 UNK         0.0784 
     95 H95       -72.2903   26.9955  -73.4677 H         1 UNK         0.0784 
     96 H96       -73.1772   25.7237  -75.4204 H         1 UNK         0.3213 
     97 H97       -73.6904   25.5456  -78.8492 H         1 UNK         0.0855 
     98 H98       -72.8661   23.1648  -78.6810 H         1 UNK         0.0814 
     99 H99       -74.6142   23.2729  -78.7450 H         1 UNK         0.0814 
    100 H100      -73.8059   22.9582  -77.2085 H         1 UNK         0.0814 
    101 H101      -75.4221   24.7361  -76.7444 H         1 UNK         0.3105 
    102 H102      -75.9403   27.7566  -75.1128 H         1 UNK         0.0547 
    103 H103      -77.3255   28.3938  -77.0617 H         1 UNK         0.0837 
    104 H104      -77.9240   26.7505  -77.2153 H         1 UNK         0.0837 
    105 H105      -78.3289   27.7120  -75.7934 H         1 UNK         0.0837 
    106 H106      -77.5628   25.4678  -75.0290 H         1 UNK         0.3020 
    107 H107      -75.3161   23.4006  -73.1502 H         1 UNK         0.1245 
    108 H108      -77.3553   23.5475  -71.4847 H         1 UNK         0.0781 
    109 H109      -77.4315   25.2238  -71.9494 H         1 UNK         0.0781 
    110 H110      -75.4676   25.9445  -68.6612 H         1 UNK         0.0836 
    111 H111      -77.0074   25.1872  -68.9811 H         1 UNK         0.0836 
    112 H112      -77.9090   23.6812  -74.5493 H         1 UNK         0.3022 
    113 H113      -77.5330   20.3617  -75.6549 H         1 UNK         0.0747 
    114 H114      -79.8887   19.9481  -74.9819 H         1 UNK         0.0793 
    115 H115      -78.8405   19.8492  -73.5781 H         1 UNK         0.0793 
    116 H116      -79.8238   21.2846  -73.8311 H         1 UNK         0.0793 
    117 H117      -79.6419   22.1706  -76.1481 H         1 UNK         0.3047 
    118 H118      -78.1054   24.5696  -78.1222 H         1 UNK         0.0822 
    119 H119      -79.6313   22.1971  -79.3212 H         1 UNK         0.0807 
    120 H120      -78.0407   22.7457  -79.8311 H         1 UNK         0.0807 
    121 H121      -79.4335   23.7875  -80.0598 H         1 UNK         0.0807 
    122 H122      -80.8295   23.9854  -78.0122 H         1 UNK         0.2946 
    123 H123      -82.1576   25.3997  -76.8315 H         1 UNK         0.1144 
    124 H124      -82.3666   23.1317  -75.7468 H         1 UNK         0.0793 
    125 H125      -81.8137   23.8016  -74.2163 H         1 UNK         0.0793 
    126 H126      -83.3545   24.3108  -74.9030 H         1 UNK         0.0793 
    127 H127      -80.6930   26.5116  -74.5876 H         1 UNK         0.2896 
@<TRIPOS>BOND
     1    1    2 1    
     2    1   67 1    
     3    1   68 1    
     4    1   69 1    
     5    2    3 2    
     6    2    4 am   BACKBONE|DICT|INTERRES
     7    4    5 1    
     8    4   70 1    
     9    5    6 1    
    10    5   65 1    
    11    5   71 1    
    12    6    7 1    
    13    6   72 1    
    14    6   73 1    
    15    7    8 1    
    16    8    9 1    
    17    8   74 1    
    18    8   75 1    
    19    9   10 ar   
    20    9   14 ar   
    21   10   11 ar   
    22   10   76 1    
    23   11   12 ar   
    24   11   48 1    
    25   12   13 ar   
    26   12   77 1    
    27   13   14 ar   
    28   13   15 1    
    29   14   78 1    
    30   15   16 1    
    31   15   79 1    
    32   15   80 1    
    33   16   17 1    
    34   17   18 1    
    35   17   81 1    
    36   17   82 1    
    37   18   19 1    
    38   18   22 1    
    39   18   83 1    
    40   19   20 am   BACKBONE|DICT|INTERRES
    41   19   21 2    
    42   20   84 1    
    43   20   85 1    
    44   22   23 am   BACKBONE|DICT|INTERRES
    45   22   86 1    
    46   23   24 2    
    47   23   25 1    
    48   25   26 1    
    49   25   27 1    
    50   25   87 1    
    51   26   88 1    
    52   26   89 1    
    53   26   90 1    
    54   27   28 am   BACKBONE|DICT|INTERRES
    55   27   91 1    
    56   28   29 2    
    57   28   30 1    
    58   30   31 1    
    59   30   32 1    
    60   30   92 1    
    61   31   93 1    
    62   31   94 1    
    63   31   95 1    
    64   32   33 am   BACKBONE|DICT|INTERRES
    65   32   96 1    
    66   33   34 2    
    67   33   35 1    
    68   35   36 1    
    69   35   37 1    
    70   35   97 1    
    71   36   98 1    
    72   36   99 1    
    73   36  100 1    
    74   37   38 am   BACKBONE|DICT|INTERRES
    75   37  101 1    
    76   38   39 2    
    77   38   40 1    
    78   40   41 1    
    79   40   42 1    
    80   40  102 1    
    81   41  103 1    
    82   41  104 1    
    83   41  105 1    
    84   42   43 am   BACKBONE|DICT|INTERRES
    85   42  106 1    
    86   43   44 2    
    87   43   45 1    
    88   45   46 1    
    89   45   49 1    
    90   45  107 1    
    91   46   47 1    
    92   46  108 1    
    93   46  109 1    
    94   47   48 1    
    95   48  110 1    
    96   48  111 1    
    97   49   50 am   BACKBONE|DICT|INTERRES
    98   49  112 1    
    99   50   51 2    
   100   50   52 1    
   101   52   53 1    
   102   52   54 1    
   103   52  113 1    
   104   53  114 1    
   105   53  115 1    
   106   53  116 1    
   107   54   55 am   BACKBONE|DICT|INTERRES
   108   54  117 1    
   109   55   56 2    
   110   55   57 1    
   111   57   58 1    
   112   57   59 1    
   113   57  118 1    
   114   58  119 1    
   115   58  120 1    
   116   58  121 1    
   117   59   60 am   BACKBONE|DICT|INTERRES
   118   59  122 1    
   119   60   61 2    
   120   60   62 1    
   121   62   63 1    
   122   62   64 1    
   123   62  123 1    
   124   63  124 1    
   125   63  125 1    
   126   63  126 1    
   127   64   65 am   BACKBONE|DICT|INTERRES
   128   64  127 1    
   129   65   66 2    
@<TRIPOS>SUBSTRUCTURE
     1 UNK         1 GROUP             0       ****    0 ROOT    
