@<TRIPOS>MOLECULE
3R135
127   129    1
SMALL
USER_CHARGES


@<TRIPOS>ATOM
      1 CA        -84.4575   27.8080  -72.6035 C.3       0 UNK        -0.1998 
      2 C         -83.7190   28.3708  -73.8085 C.2       0 UNK         0.4909 
      3 O         -84.3438   28.6602  -74.8293 O.2       0 UNK        -0.5240 
      4 N         -82.3941   28.5311  -73.6945 N.am      1 UNK        -0.4739 
      5 CA        -81.5161   29.0311  -74.7611 C.3       1 UNK         0.0864 
      6 C6        -80.1356   29.4712  -74.2133 C.3       11 UNK        -0.0881 
      7 S7        -80.2456   30.9760  -73.1842 S.3       11 UNK        -0.2682 
      8 C8        -80.3750   30.3219  -71.4872 C.3       11 UNK         0.0289 
      9 C9        -79.1114   29.6021  -71.0396 C.ar      11 UNK        -0.0687 
     10 C10       -79.0904   28.2080  -70.9366 C.ar      11 UNK        -0.0823 
     11 C11       -77.9344   27.5446  -70.5162 C.ar      11 UNK        -0.0830 
     12 C12       -76.7936   28.2858  -70.1948 C.ar      11 UNK        -0.1021 
     13 C13       -76.7980   29.6795  -70.3051 C.ar      11 UNK        -0.0753 
     14 C14       -77.9651   30.3326  -70.7142 C.ar      11 UNK        -0.0933 
     15 C15       -75.5371   30.4741  -69.9890 C.3       11 UNK         0.0166 
     16 S16       -74.9618   31.4650  -71.4071 S.3       11 UNK        -0.2615 
     17 C17       -74.6641   30.1882  -72.6787 C.3       11 UNK        -0.0865 
     18 CA        -73.1603   29.9920  -73.0042 C.3       10 UNK         0.0862 
     19 C         -72.4815   29.0142  -72.0059 C.2       10 UNK         0.5551 
     20 N         -72.3552   27.7335  -72.3313 N.am      10 UNK        -0.7319 
     21 O         -72.0471   29.4250  -70.9331 O.2       10 UNK        -0.5018 
     22 N         -72.9949   29.5796  -74.4059 N.am      10 UNK        -0.4509 
     23 C         -72.1855   30.1666  -75.2948 C.2       10 UNK         0.4899 
     24 O         -71.4623   31.1310  -75.0378 O.2       10 UNK        -0.4839 
     25 CA        -72.2154   29.5847  -76.7202 C.3       9 UNK         0.0222 
     26 CB        -71.1878   30.2368  -77.6708 C.3       9 UNK        -0.1966 
     27 N         -72.1047   28.1222  -76.7413 N.am      9 UNK        -0.4218 
     28 C         -71.0631   27.3736  -76.3438 C.2       9 UNK         0.5020 
     29 O         -70.0168   27.8447  -75.8956 O.2       9 UNK        -0.5274 
     30 CA        -71.1883   25.8384  -76.4528 C.3       8 UNK         0.0270 
     31 CB        -71.0267   25.1825  -75.0704 C.3       8 UNK        -0.1976 
     32 N         -72.4452   25.3772  -77.0498 N.am      8 UNK        -0.4313 
     33 C         -72.7564   25.4269  -78.3521 C.2       8 UNK         0.5041 
     34 O         -71.9756   25.7968  -79.2292 O.2       8 UNK        -0.5577 
     35 CA        -74.2037   25.0578  -78.7310 C.3       7 UNK         0.0284 
     36 CB        -74.3467   23.5421  -78.9383 C.3       7 UNK        -0.1958 
     37 N         -75.1896   25.5213  -77.7462 N.am      7 UNK        -0.4454 
     38 C         -75.4050   26.8092  -77.4360 C.2       7 UNK         0.5089 
     39 O         -74.8269   27.7495  -77.9790 O.2       7 UNK        -0.5125 
     40 CA        -76.3771   27.0979  -76.2832 C.3       6 UNK         0.0408 
     41 CB        -77.8303   27.0670  -76.7688 C.3       6 UNK        -0.1791 
     42 N         -76.1981   26.1573  -75.1771 N.am      6 UNK        -0.4762 
     43 C         -75.1380   26.1653  -74.3568 C.2       6 UNK         0.5007 
     44 O         -74.2362   27.0032  -74.4189 O.2       6 UNK        -0.5032 
     45 CA        -75.0262   25.0165  -73.3349 C.3       5 UNK         0.0783 
     46 C46       -75.6950   25.3600  -71.9832 C.3       11 UNK        -0.0857 
     47 S47       -77.5171   25.2440  -71.9956 S.3       11 UNK        -0.2512 
     48 C48       -77.9281   26.0274  -70.4061 C.3       11 UNK         0.0225 
     49 N         -75.4742   23.7328  -73.8829 N.am      5 UNK        -0.4615 
     50 C         -74.8350   23.0776  -74.8590 C.2       4 UNK         0.5053 
     51 O         -73.7990   23.4832  -75.3822 O.2       4 UNK        -0.5105 
     52 CA        -75.4597   21.7666  -75.3580 C.3       4 UNK         0.0263 
     53 CB        -75.0003   20.5897  -74.4829 C.3       4 UNK        -0.1981 
     54 N         -76.9234   21.7728  -75.4394 N.am      4 UNK        -0.4224 
     55 C         -77.6698   22.6311  -76.1496 C.2       3 UNK         0.4895 
     56 O         -77.2086   23.6075  -76.7468 O.2       3 UNK        -0.5091 
     57 CA        -79.1709   22.2955  -76.2637 C.3       3 UNK         0.0250 
     58 CB        -79.7409   21.5504  -75.0328 C.3       3 UNK        -0.1996 
     59 N         -79.9962   23.4590  -76.6109 N.am      3 UNK        -0.4254 
     60 C         -80.2729   24.5183  -75.8384 C.2       2 UNK         0.5004 
     61 O         -79.8573   24.6686  -74.6870 O.2       2 UNK        -0.5226 
     62 CA        -81.1913   25.5801  -76.4632 C.3       2 UNK         0.0269 
     63 CB        -82.5920   25.0128  -76.7635 C.3       2 UNK        -0.1926 
     64 N         -81.3307   26.7104  -75.5477 N.am      2 UNK        -0.4687 
     65 C         -81.3521   28.0016  -75.8989 C.2       1 UNK         0.5165 
     66 O         -81.2566   28.3943  -77.0625 O.2       1 UNK        -0.5079 
     67 H67       -85.2175   28.5127  -72.2670 H         1 UNK         0.0900 
     68 H68       -84.9523   26.8744  -72.8700 H         1 UNK         0.0900 
     69 H69       -83.7861   27.6096  -71.7683 H         1 UNK         0.0900 
     70 H70       -81.9384   28.2798  -72.8308 H         1 UNK         0.2959 
     71 H71       -81.9974   29.9052  -75.2065 H         1 UNK         0.1079 
     72 H72       -79.6522   28.6629  -73.6629 H         1 UNK         0.0837 
     73 H73       -79.4599   29.7106  -75.0372 H         1 UNK         0.0837 
     74 H74       -81.2449   29.6698  -71.4083 H         1 UNK         0.0685 
     75 H75       -80.5659   31.1556  -70.8099 H         1 UNK         0.0685 
     76 H76       -79.9723   27.6342  -71.1852 H         1 UNK         0.1434 
     77 H77       -75.8979   27.7768  -69.8663 H         1 UNK         0.1329 
     78 H78       -77.9748   31.4109  -70.7987 H         1 UNK         0.1335 
     79 H79       -75.7393   31.1418  -69.1506 H         1 UNK         0.0680 
     80 H80       -74.7278   29.8149  -69.6706 H         1 UNK         0.0680 
     81 H81       -75.1947   30.5306  -73.5687 H         1 UNK         0.1032 
     82 H82       -75.1399   29.2417  -72.4162 H         1 UNK         0.1032 
     83 H83       -72.6648   30.9552  -72.8684 H         1 UNK         0.0461 
     84 H84       -71.8963   27.1036  -71.6937 H         1 UNK         0.3453 
     85 H85       -72.7655   27.3924  -73.1911 H         1 UNK         0.3453 
     86 H86       -73.5032   28.7420  -74.6755 H         1 UNK         0.2984 
     87 H87       -73.2062   29.8145  -77.1142 H         1 UNK         0.0554 
     88 H88       -71.3607   31.3105  -77.7535 H         1 UNK         0.0847 
     89 H89       -71.2575   29.8202  -78.6755 H         1 UNK         0.0847 
     90 H90       -70.1641   30.1008  -77.3209 H         1 UNK         0.0847 
     91 H91       -72.9243   27.6434  -77.0971 H         1 UNK         0.3141 
     92 H92       -70.3670   25.4976  -77.0863 H         1 UNK         0.0743 
     93 H93       -70.0782   25.4603  -74.6090 H         1 UNK         0.0784 
     94 H94       -71.8216   25.4834  -74.3883 H         1 UNK         0.0784 
     95 H95       -71.0425   24.0949  -75.1434 H         1 UNK         0.0784 
     96 H96       -73.1176   24.9567  -76.4127 H         1 UNK         0.3213 
     97 H97       -74.4322   25.5526  -79.6774 H         1 UNK         0.0855 
     98 H98       -74.0865   22.9851  -78.0390 H         1 UNK         0.0814 
     99 H99       -73.6872   23.1963  -79.7353 H         1 UNK         0.0814 
    100 H100      -75.3651   23.2719  -79.2184 H         1 UNK         0.0814 
    101 H101      -75.7479   24.8131  -77.2759 H         1 UNK         0.3105 
    102 H102      -76.1706   28.1034  -75.9097 H         1 UNK         0.0547 
    103 H103      -78.0880   26.1083  -77.2185 H         1 UNK         0.0837 
    104 H104      -78.0088   27.8379  -77.5195 H         1 UNK         0.0837 
    105 H105      -78.5163   27.2498  -75.9435 H         1 UNK         0.0837 
    106 H106      -76.8774   25.4126  -75.0882 H         1 UNK         0.3020 
    107 H107      -73.9577   24.9114  -73.1321 H         1 UNK         0.1245 
    108 H108      -75.3905   26.3554  -71.6580 H         1 UNK         0.0781 
    109 H109      -75.3281   24.6753  -71.2169 H         1 UNK         0.0781 
    110 H110      -77.2287   25.6976  -69.6362 H         1 UNK         0.0836 
    111 H111      -78.9119   25.6787  -70.0885 H         1 UNK         0.0836 
    112 H112      -76.3364   23.3594  -73.5126 H         1 UNK         0.3022 
    113 H113      -75.0866   21.5969  -76.3694 H         1 UNK         0.0747 
    114 H114      -75.3331   19.6356  -74.8922 H         1 UNK         0.0793 
    115 H115      -73.9115   20.5502  -74.4221 H         1 UNK         0.0793 
    116 H116      -75.3808   20.6702  -73.4638 H         1 UNK         0.0793 
    117 H117      -77.3966   21.0067  -74.9829 H         1 UNK         0.3047 
    118 H118      -79.2528   21.6195  -77.1161 H         1 UNK         0.0822 
    119 H119      -80.8188   21.4130  -75.1210 H         1 UNK         0.0807 
    120 H120      -79.5526   22.0914  -74.1043 H         1 UNK         0.0807 
    121 H121      -79.3076   20.5553  -74.9290 H         1 UNK         0.0807 
    122 H122      -80.3598   23.4540  -77.5536 H         1 UNK         0.2946 
    123 H123      -80.7252   25.9100  -77.3947 H         1 UNK         0.1144 
    124 H124      -83.2454   25.7779  -77.1837 H         1 UNK         0.0793 
    125 H125      -83.0700   24.6265  -75.8623 H         1 UNK         0.0793 
    126 H126      -82.5488   24.1980  -77.4868 H         1 UNK         0.0793 
    127 H127      -81.3315   26.4651  -74.5665 H         1 UNK         0.2896 
@<TRIPOS>BOND
     1    1    2 1    
     2    1   67 1    
     3    1   68 1    
     4    1   69 1    
     5    2    3 2    
     6    2    4 am   BACKBONE|DICT|INTERRES
     7    4    5 1    
     8    4   70 1    
     9    5    6 1    
    10    5   65 1    
    11    5   71 1    
    12    6    7 1    
    13    6   72 1    
    14    6   73 1    
    15    7    8 1    
    16    8    9 1    
    17    8   74 1    
    18    8   75 1    
    19    9   10 ar   
    20    9   14 ar   
    21   10   11 ar   
    22   10   76 1    
    23   11   12 ar   
    24   11   48 1    
    25   12   13 ar   
    26   12   77 1    
    27   13   14 ar   
    28   13   15 1    
    29   14   78 1    
    30   15   16 1    
    31   15   79 1    
    32   15   80 1    
    33   16   17 1    
    34   17   18 1    
    35   17   81 1    
    36   17   82 1    
    37   18   19 1    
    38   18   22 1    
    39   18   83 1    
    40   19   20 am   BACKBONE|DICT|INTERRES
    41   19   21 2    
    42   20   84 1    
    43   20   85 1    
    44   22   23 am   BACKBONE|DICT|INTERRES
    45   22   86 1    
    46   23   24 2    
    47   23   25 1    
    48   25   26 1    
    49   25   27 1    
    50   25   87 1    
    51   26   88 1    
    52   26   89 1    
    53   26   90 1    
    54   27   28 am   BACKBONE|DICT|INTERRES
    55   27   91 1    
    56   28   29 2    
    57   28   30 1    
    58   30   31 1    
    59   30   32 1    
    60   30   92 1    
    61   31   93 1    
    62   31   94 1    
    63   31   95 1    
    64   32   33 am   BACKBONE|DICT|INTERRES
    65   32   96 1    
    66   33   34 2    
    67   33   35 1    
    68   35   36 1    
    69   35   37 1    
    70   35   97 1    
    71   36   98 1    
    72   36   99 1    
    73   36  100 1    
    74   37   38 am   BACKBONE|DICT|INTERRES
    75   37  101 1    
    76   38   39 2    
    77   38   40 1    
    78   40   41 1    
    79   40   42 1    
    80   40  102 1    
    81   41  103 1    
    82   41  104 1    
    83   41  105 1    
    84   42   43 am   BACKBONE|DICT|INTERRES
    85   42  106 1    
    86   43   44 2    
    87   43   45 1    
    88   45   46 1    
    89   45   49 1    
    90   45  107 1    
    91   46   47 1    
    92   46  108 1    
    93   46  109 1    
    94   47   48 1    
    95   48  110 1    
    96   48  111 1    
    97   49   50 am   BACKBONE|DICT|INTERRES
    98   49  112 1    
    99   50   51 2    
   100   50   52 1    
   101   52   53 1    
   102   52   54 1    
   103   52  113 1    
   104   53  114 1    
   105   53  115 1    
   106   53  116 1    
   107   54   55 am   BACKBONE|DICT|INTERRES
   108   54  117 1    
   109   55   56 2    
   110   55   57 1    
   111   57   58 1    
   112   57   59 1    
   113   57  118 1    
   114   58  119 1    
   115   58  120 1    
   116   58  121 1    
   117   59   60 am   BACKBONE|DICT|INTERRES
   118   59  122 1    
   119   60   61 2    
   120   60   62 1    
   121   62   63 1    
   122   62   64 1    
   123   62  123 1    
   124   63  124 1    
   125   63  125 1    
   126   63  126 1    
   127   64   65 am   BACKBONE|DICT|INTERRES
   128   64  127 1    
   129   65   66 2    
@<TRIPOS>SUBSTRUCTURE
     1 UNK         1 GROUP             0       ****    0 ROOT    
