@<TRIPOS>MOLECULE
3R135
127   129    1
SMALL
USER_CHARGES


@<TRIPOS>ATOM
      1 CA        -75.1583   23.4589  -71.5002 C.3       0 UNK        -0.1998 
      2 C         -76.6098   23.7792  -71.1750 C.2       0 UNK         0.4909 
      3 O         -77.4002   22.8670  -70.9319 O.2       0 UNK        -0.5240 
      4 N         -76.9610   25.0696  -71.1591 N.am      1 UNK        -0.4739 
      5 CA        -78.3166   25.5626  -70.9096 C.3       1 UNK         0.0864 
      6 C6        -78.2611   27.0053  -70.3445 C.3       11 UNK        -0.0881 
      7 S7        -79.8699   27.5964  -69.7093 S.3       11 UNK        -0.2682 
      8 C8        -79.7512   29.4039  -69.9671 C.3       11 UNK         0.0289 
      9 C9        -79.4756   29.8455  -71.4059 C.ar      11 UNK        -0.0687 
     10 C10       -79.9160   29.1016  -72.5074 C.ar      11 UNK        -0.0823 
     11 C11       -79.6017   29.4945  -73.8113 C.ar      11 UNK        -0.0830 
     12 C12       -78.8979   30.6858  -74.0146 C.ar      11 UNK        -0.1021 
     13 C13       -78.4525   31.4413  -72.9280 C.ar      11 UNK        -0.0753 
     14 C14       -78.7491   31.0195  -71.6284 C.ar      11 UNK        -0.0933 
     15 C15       -77.6144   32.6897  -73.1626 C.3       11 UNK         0.0166 
     16 S16       -75.9269   32.2725  -73.7125 S.3       11 UNK        -0.2615 
     17 C17       -75.3311   31.2668  -72.3089 C.3       11 UNK        -0.0865 
     18 CA        -73.7762   31.1996  -72.2152 C.3       10 UNK         0.0862 
     19 C         -73.2513   30.4700  -70.9376 C.2       10 UNK         0.5551 
     20 N         -73.9504   30.5607  -69.8103 N.am      10 UNK        -0.7319 
     21 O         -72.1770   29.8658  -70.9363 O.2       10 UNK        -0.5018 
     22 N         -73.1437   30.7115  -73.4544 N.am      10 UNK        -0.4509 
     23 C         -73.2768   29.4869  -73.9817 C.2       10 UNK         0.4899 
     24 O         -74.0309   28.6217  -73.5276 O.2       10 UNK        -0.4839 
     25 CA        -72.4598   29.2025  -75.2608 C.3       9 UNK         0.0222 
     26 CB        -71.0539   29.8465  -75.2542 C.3       9 UNK        -0.1966 
     27 N         -72.3921   27.7662  -75.5638 N.am      9 UNK        -0.4218 
     28 C         -71.7640   26.8163  -74.8525 C.2       9 UNK         0.5020 
     29 O         -71.0185   27.0486  -73.8994 O.2       9 UNK        -0.5274 
     30 CA        -72.0158   25.3466  -75.2353 C.3       8 UNK         0.0270 
     31 CB        -72.9389   24.6808  -74.1998 C.3       8 UNK        -0.1976 
     32 N         -72.5861   25.1463  -76.5701 N.am      8 UNK        -0.4313 
     33 C         -71.8911   25.2025  -77.7147 C.2       8 UNK         0.5041 
     34 O         -70.7070   25.5344  -77.7782 O.2       8 UNK        -0.5577 
     35 CA        -72.6288   24.8037  -79.0027 C.3       7 UNK         0.0284 
     36 CB        -72.7031   23.2724  -79.1245 C.3       7 UNK        -0.1958 
     37 N         -73.9836   25.3548  -79.0333 N.am      7 UNK        -0.4454 
     38 C         -74.4053   26.3135  -79.8693 C.2       7 UNK         0.5089 
     39 O         -73.7197   26.7863  -80.7767 O.2       7 UNK        -0.5125 
     40 CA        -75.8333   26.8560  -79.6533 C.3       6 UNK         0.0408 
     41 CB        -76.8255   26.1374  -80.5805 C.3       6 UNK        -0.1791 
     42 N         -76.3078   26.7471  -78.2711 N.am      6 UNK        -0.4762 
     43 C         -75.7253   27.3193  -77.2054 C.2       6 UNK         0.5007 
     44 O         -74.7487   28.0622  -77.2869 O.2       6 UNK        -0.5032 
     45 CA        -76.2780   26.9567  -75.8083 C.3       5 UNK         0.0783 
     46 C46       -77.1873   28.0803  -75.2550 C.3       11 UNK        -0.0857 
     47 S47       -78.6955   28.4018  -76.2478 S.3       11 UNK        -0.2512 
     48 C48       -79.9954   28.5950  -74.9799 C.3       11 UNK         0.0225 
     49 N         -76.9186   25.6370  -75.7320 N.am      5 UNK        -0.4615 
     50 C         -76.3866   24.4708  -76.1282 C.2       4 UNK         0.5053 
     51 O         -75.2479   24.3629  -76.5854 O.2       4 UNK        -0.5105 
     52 CA        -77.2713   23.2165  -76.0528 C.3       4 UNK         0.0263 
     53 CB        -76.9291   22.3921  -74.8049 C.3       4 UNK        -0.1981 
     54 N         -78.7078   23.4960  -76.0621 N.am      4 UNK        -0.4224 
     55 C         -79.3978   24.0720  -77.0538 C.2       3 UNK         0.4895 
     56 O         -78.8879   24.4464  -78.1107 O.2       3 UNK        -0.5091 
     57 CA        -80.9063   24.2909  -76.8247 C.3       3 UNK         0.0250 
     58 CB        -81.7069   23.0153  -77.1513 C.3       3 UNK        -0.1996 
     59 N         -81.2577   24.8260  -75.4976 N.am      3 UNK        -0.4254 
     60 C         -81.1097   24.2583  -74.2904 C.2       2 UNK         0.5004 
     61 O         -80.6778   23.1181  -74.1052 O.2       2 UNK        -0.5226 
     62 CA        -81.4935   25.1248  -73.0786 C.3       2 UNK         0.0269 
     63 CB        -82.8147   24.6329  -72.4664 C.3       2 UNK        -0.1926 
     64 N         -80.4634   25.1588  -72.0328 N.am      2 UNK        -0.4687 
     65 C         -79.1662   25.4639  -72.1969 C.2       1 UNK         0.5165 
     66 O         -78.6505   25.7110  -73.2899 O.2       1 UNK        -0.5079 
     67 H67       -74.7052   22.9002  -70.6782 H         1 UNK         0.0900 
     68 H68       -74.5687   24.3646  -71.6598 H         1 UNK         0.0900 
     69 H69       -75.0976   22.8479  -72.4032 H         1 UNK         0.0900 
     70 H70       -76.2819   25.7727  -71.4127 H         1 UNK         0.2959 
     71 H71       -78.7723   24.9221  -70.1508 H         1 UNK         0.1079 
     72 H72       -77.5568   27.0482  -69.5119 H         1 UNK         0.0837 
     73 H73       -77.8693   27.6912  -71.0974 H         1 UNK         0.0837 
     74 H74       -80.6841   29.8627  -69.6377 H         1 UNK         0.0685 
     75 H75       -78.9702   29.7834  -69.3064 H         1 UNK         0.0685 
     76 H76       -80.4763   28.1919  -72.3495 H         1 UNK         0.1434 
     77 H77       -78.6502   31.0025  -75.0185 H         1 UNK         0.1329 
     78 H78       -78.3985   31.5997  -70.7858 H         1 UNK         0.1335 
     79 H79       -77.5599   33.2994  -72.2592 H         1 UNK         0.0680 
     80 H80       -78.0920   33.3096  -73.9227 H         1 UNK         0.0680 
     81 H81       -75.7594   30.2659  -72.3874 H         1 UNK         0.1032 
     82 H82       -75.7464   31.7038  -71.4005 H         1 UNK         0.1032 
     83 H83       -73.4178   32.2235  -72.1064 H         1 UNK         0.0461 
     84 H84       -73.5948   30.1062  -68.9836 H         1 UNK         0.3453 
     85 H85       -74.8148   31.0800  -69.7600 H         1 UNK         0.3453 
     86 H86       -72.4983   31.3530  -73.8904 H         1 UNK         0.2984 
     87 H87       -73.0176   29.6534  -76.0821 H         1 UNK         0.0554 
     88 H88       -70.4666   29.5212  -76.1129 H         1 UNK         0.0847 
     89 H89       -70.4935   29.5939  -74.3532 H         1 UNK         0.0847 
     90 H90       -71.1134   30.9337  -75.3076 H         1 UNK         0.0847 
     91 H91       -73.0090   27.4728  -76.3124 H         1 UNK         0.3141 
     92 H92       -71.0507   24.8362  -75.2008 H         1 UNK         0.0743 
     93 H93       -73.9162   25.1626  -74.1611 H         1 UNK         0.0784 
     94 H94       -73.0935   23.6249  -74.4226 H         1 UNK         0.0784 
     95 H95       -72.5077   24.7404  -73.1997 H         1 UNK         0.0784 
     96 H96       -73.5565   24.8348  -76.5985 H         1 UNK         0.3213 
     97 H97       -72.0432   25.1803  -79.8443 H         1 UNK         0.0855 
     98 H98       -73.2848   22.8279  -78.3157 H         1 UNK         0.0814 
     99 H99       -71.7068   22.8292  -79.0935 H         1 UNK         0.0814 
    100 H100      -73.1609   22.9741  -80.0677 H         1 UNK         0.0814 
    101 H101      -74.6192   25.0381  -78.3075 H         1 UNK         0.3105 
    102 H102      -75.8243   27.9160  -79.9148 H         1 UNK         0.0547 
    103 H103      -76.5157   26.2176  -81.6234 H         1 UNK         0.0837 
    104 H104      -76.9026   25.0755  -80.3426 H         1 UNK         0.0837 
    105 H105      -77.8236   26.5694  -80.5055 H         1 UNK         0.0837 
    106 H106      -77.1088   26.1487  -78.1102 H         1 UNK         0.3020 
    107 H107      -75.4079   26.8999  -75.1515 H         1 UNK         0.1245 
    108 H108      -76.6253   29.0140  -75.1835 H         1 UNK         0.0781 
    109 H109      -77.4670   27.8402  -74.2290 H         1 UNK         0.0781 
    110 H110      -80.2443   27.5982  -74.6188 H         1 UNK         0.0836 
    111 H111      -80.8958   28.9927  -75.4496 H         1 UNK         0.0836 
    112 H112      -77.8306   25.6211  -75.2904 H         1 UNK         0.3022 
    113 H113      -77.0466   22.6140  -76.9352 H         1 UNK         0.0747 
    114 H114      -77.4452   21.4318  -74.8110 H         1 UNK         0.0793 
    115 H115      -75.8594   22.1851  -74.7494 H         1 UNK         0.0793 
    116 H116      -77.2152   22.9178  -73.8941 H         1 UNK         0.0793 
    117 H117      -79.2353   23.2347  -75.2309 H         1 UNK         0.3047 
    118 H118      -81.2143   25.0574  -77.5381 H         1 UNK         0.0822 
    119 H119      -82.7797   23.1887  -77.0678 H         1 UNK         0.0807 
    120 H120      -81.4489   22.1877  -76.4899 H         1 UNK         0.0807 
    121 H121      -81.5109   22.6849  -78.1722 H         1 UNK         0.0807 
    122 H122      -81.6220   25.7679  -75.5229 H         1 UNK         0.2946 
    123 H123      -81.6427   26.1520  -73.4132 H         1 UNK         0.1144 
    124 H124      -83.6102   24.6168  -73.2130 H         1 UNK         0.0793 
    125 H125      -83.1460   25.2838  -71.6570 H         1 UNK         0.0793 
    126 H126      -82.7215   23.6213  -72.0686 H         1 UNK         0.0793 
    127 H127      -80.7881   24.9729  -71.0949 H         1 UNK         0.2896 
@<TRIPOS>BOND
     1    1    2 1    
     2    1   67 1    
     3    1   68 1    
     4    1   69 1    
     5    2    3 2    
     6    2    4 am   BACKBONE|DICT|INTERRES
     7    4    5 1    
     8    4   70 1    
     9    5    6 1    
    10    5   65 1    
    11    5   71 1    
    12    6    7 1    
    13    6   72 1    
    14    6   73 1    
    15    7    8 1    
    16    8    9 1    
    17    8   74 1    
    18    8   75 1    
    19    9   10 ar   
    20    9   14 ar   
    21   10   11 ar   
    22   10   76 1    
    23   11   12 ar   
    24   11   48 1    
    25   12   13 ar   
    26   12   77 1    
    27   13   14 ar   
    28   13   15 1    
    29   14   78 1    
    30   15   16 1    
    31   15   79 1    
    32   15   80 1    
    33   16   17 1    
    34   17   18 1    
    35   17   81 1    
    36   17   82 1    
    37   18   19 1    
    38   18   22 1    
    39   18   83 1    
    40   19   20 am   BACKBONE|DICT|INTERRES
    41   19   21 2    
    42   20   84 1    
    43   20   85 1    
    44   22   23 am   BACKBONE|DICT|INTERRES
    45   22   86 1    
    46   23   24 2    
    47   23   25 1    
    48   25   26 1    
    49   25   27 1    
    50   25   87 1    
    51   26   88 1    
    52   26   89 1    
    53   26   90 1    
    54   27   28 am   BACKBONE|DICT|INTERRES
    55   27   91 1    
    56   28   29 2    
    57   28   30 1    
    58   30   31 1    
    59   30   32 1    
    60   30   92 1    
    61   31   93 1    
    62   31   94 1    
    63   31   95 1    
    64   32   33 am   BACKBONE|DICT|INTERRES
    65   32   96 1    
    66   33   34 2    
    67   33   35 1    
    68   35   36 1    
    69   35   37 1    
    70   35   97 1    
    71   36   98 1    
    72   36   99 1    
    73   36  100 1    
    74   37   38 am   BACKBONE|DICT|INTERRES
    75   37  101 1    
    76   38   39 2    
    77   38   40 1    
    78   40   41 1    
    79   40   42 1    
    80   40  102 1    
    81   41  103 1    
    82   41  104 1    
    83   41  105 1    
    84   42   43 am   BACKBONE|DICT|INTERRES
    85   42  106 1    
    86   43   44 2    
    87   43   45 1    
    88   45   46 1    
    89   45   49 1    
    90   45  107 1    
    91   46   47 1    
    92   46  108 1    
    93   46  109 1    
    94   47   48 1    
    95   48  110 1    
    96   48  111 1    
    97   49   50 am   BACKBONE|DICT|INTERRES
    98   49  112 1    
    99   50   51 2    
   100   50   52 1    
   101   52   53 1    
   102   52   54 1    
   103   52  113 1    
   104   53  114 1    
   105   53  115 1    
   106   53  116 1    
   107   54   55 am   BACKBONE|DICT|INTERRES
   108   54  117 1    
   109   55   56 2    
   110   55   57 1    
   111   57   58 1    
   112   57   59 1    
   113   57  118 1    
   114   58  119 1    
   115   58  120 1    
   116   58  121 1    
   117   59   60 am   BACKBONE|DICT|INTERRES
   118   59  122 1    
   119   60   61 2    
   120   60   62 1    
   121   62   63 1    
   122   62   64 1    
   123   62  123 1    
   124   63  124 1    
   125   63  125 1    
   126   63  126 1    
   127   64   65 am   BACKBONE|DICT|INTERRES
   128   64  127 1    
   129   65   66 2    
@<TRIPOS>SUBSTRUCTURE
     1 UNK         1 GROUP             0       ****    0 ROOT    
