@<TRIPOS>MOLECULE
3R135
127   129    1
SMALL
USER_CHARGES


@<TRIPOS>ATOM
      1 CA        -75.7303   23.9056  -70.0888 C.3       0 UNK        -0.1998 
      2 C         -77.1748   24.3667  -70.2162 C.2       0 UNK         0.4909 
      3 O         -78.0909   23.5530  -70.0961 O.2       0 UNK        -0.5240 
      4 N         -77.3830   25.6669  -70.4476 N.am      1 UNK        -0.4739 
      5 CA        -78.6974   26.2822  -70.6395 C.3       1 UNK         0.0864 
      6 C6        -78.6363   27.7987  -70.3323 C.3       11 UNK        -0.0881 
      7 S7        -80.1704   28.4630  -69.5902 S.3       11 UNK        -0.2682 
      8 C8        -81.1404   29.1102  -71.0014 C.3       11 UNK         0.0289 
      9 C9        -80.3173   29.8626  -72.0409 C.ar      11 UNK        -0.0687 
     10 C10       -80.4457   29.5342  -73.3929 C.ar      11 UNK        -0.0823 
     11 C11       -79.6479   30.1554  -74.3563 C.ar      11 UNK        -0.0830 
     12 C12       -78.7337   31.1379  -73.9623 C.ar      11 UNK        -0.1021 
     13 C13       -78.5938   31.4754  -72.6122 C.ar      11 UNK        -0.0753 
     14 C14       -79.4061   30.8529  -71.6601 C.ar      11 UNK        -0.0933 
     15 C15       -77.5256   32.4667  -72.1672 C.3       11 UNK         0.0166 
     16 S16       -75.8286   31.8995  -72.5407 S.3       11 UNK        -0.2615 
     17 C17       -75.8686   30.1418  -72.0310 C.3       11 UNK        -0.0865 
     18 CA        -74.4935   29.4198  -72.0953 C.3       10 UNK         0.0862 
     19 C         -74.6586   27.8992  -71.7861 C.2       10 UNK         0.5551 
     20 N         -74.2320   26.9810  -72.6453 N.am      10 UNK        -0.7319 
     21 O         -75.1983   27.5431  -70.7417 O.2       10 UNK        -0.5018 
     22 N         -73.7700   29.7160  -73.3428 N.am      10 UNK        -0.4509 
     23 C         -72.4512   29.5842  -73.5213 C.2       10 UNK         0.4899 
     24 O         -71.6580   29.2394  -72.6431 O.2       10 UNK        -0.4839 
     25 CA        -71.9348   29.8816  -74.9409 C.3       9 UNK         0.0222 
     26 CB        -70.9418   31.0559  -74.9265 C.3       9 UNK        -0.1966 
     27 N         -71.3096   28.7192  -75.5831 N.am      9 UNK        -0.4218 
     28 C         -71.8768   27.5136  -75.7269 C.2       9 UNK         0.5020 
     29 O         -72.9737   27.2070  -75.2603 O.2       9 UNK        -0.5274 
     30 CA        -71.0904   26.4641  -76.5140 C.3       8 UNK         0.0270 
     31 CB        -70.2163   25.6120  -75.5771 C.3       8 UNK        -0.1976 
     32 N         -72.0473   25.6124  -77.2171 N.am      8 UNK        -0.4313 
     33 C         -71.8112   24.9747  -78.3692 C.2       8 UNK         0.5041 
     34 O         -70.7268   24.9963  -78.9537 O.2       8 UNK        -0.5577 
     35 CA        -72.9780   24.1914  -78.9878 C.3       7 UNK         0.0284 
     36 CB        -73.1428   22.8237  -78.3036 C.3       7 UNK        -0.1958 
     37 N         -74.2330   24.9408  -78.9060 N.am      7 UNK        -0.4454 
     38 C         -74.6682   25.7964  -79.8423 C.2       7 UNK         0.5089 
     39 O         -74.0581   26.0320  -80.8859 O.2       7 UNK        -0.5125 
     40 CA        -76.0161   26.5015  -79.5982 C.3       6 UNK         0.0408 
     41 CB        -77.1364   25.8007  -80.3826 C.3       6 UNK        -0.1791 
     42 N         -76.3814   26.5572  -78.1820 N.am      6 UNK        -0.4762 
     43 C         -75.8911   27.4545  -77.3126 C.2       6 UNK         0.5007 
     44 O         -75.1472   28.3792  -77.6424 O.2       6 UNK        -0.5032 
     45 CA        -76.2728   27.2932  -75.8238 C.3       5 UNK         0.0783 
     46 C46       -77.3338   28.3263  -75.3832 C.3       11 UNK        -0.0857 
     47 S47       -79.0075   28.0649  -76.0681 S.3       11 UNK        -0.2512 
     48 C48       -79.7354   29.7196  -75.8134 C.3       11 UNK         0.0225 
     49 N         -76.6362   25.9303  -75.4254 N.am      5 UNK        -0.4615 
     50 C         -75.8810   24.8334  -75.5772 C.2       4 UNK         0.5053 
     51 O         -74.7499   24.8376  -76.0613 O.2       4 UNK        -0.5105 
     52 CA        -76.5245   23.4897  -75.1983 C.3       4 UNK         0.0263 
     53 CB        -76.2545   23.1649  -73.7233 C.3       4 UNK        -0.1981 
     54 N         -77.9679   23.4534  -75.4504 N.am      4 UNK        -0.4224 
     55 C         -78.5565   23.6284  -76.6416 C.2       3 UNK         0.4895 
     56 O         -77.9331   23.7872  -77.6912 O.2       3 UNK        -0.5091 
     57 CA        -80.0939   23.6962  -76.6684 C.3       3 UNK         0.0250 
     58 CB        -80.7236   22.2895  -76.6439 C.3       3 UNK        -0.1996 
     59 N         -80.6618   24.5806  -75.6383 N.am      3 UNK        -0.4254 
     60 C         -80.6673   24.4194  -74.3071 C.2       2 UNK         0.5004 
     61 O         -80.2534   23.4118  -73.7283 O.2       2 UNK        -0.5226 
     62 CA        -81.2124   25.6022  -73.4895 C.3       2 UNK         0.0269 
     63 CB        -82.7166   25.4317  -73.2250 C.3       2 UNK        -0.1926 
     64 N         -80.5183   25.7911  -72.2112 N.am      2 UNK        -0.4687 
     65 C         -79.2057   26.0278  -72.0733 C.2       1 UNK         0.5165 
     66 O         -78.4185   26.0983  -73.0210 O.2       1 UNK        -0.5079 
     67 H67       -75.0266   24.7159  -70.2793 H         1 UNK         0.0900 
     68 H68       -75.5255   23.1036  -70.7971 H         1 UNK         0.0900 
     69 H69       -75.5462   23.5267  -69.0840 H         1 UNK         0.0900 
     70 H70       -76.5880   26.2917  -70.5632 H         1 UNK         0.2959 
     71 H71       -79.3848   25.8070  -69.9358 H         1 UNK         0.1079 
     72 H72       -77.8609   27.9892  -69.5881 H         1 UNK         0.0837 
     73 H73       -78.3196   28.3724  -71.2036 H         1 UNK         0.0837 
     74 H74       -81.6680   28.2750  -71.4632 H         1 UNK         0.0685 
     75 H75       -81.9115   29.7783  -70.6161 H         1 UNK         0.0685 
     76 H76       -81.1453   28.7698  -73.6977 H         1 UNK         0.1434 
     77 H77       -78.0952   31.6088  -74.6974 H         1 UNK         0.1329 
     78 H78       -79.2962   31.1006  -70.6131 H         1 UNK         0.1335 
     79 H79       -77.5984   32.6561  -71.0951 H         1 UNK         0.0680 
     80 H80       -77.6962   33.4247  -72.6601 H         1 UNK         0.0680 
     81 H81       -76.5863   29.6242  -72.6662 H         1 UNK         0.1032 
     82 H82       -76.2721   30.0882  -71.0179 H         1 UNK         0.1032 
     83 H83       -73.8886   29.8204  -71.2798 H         1 UNK         0.0461 
     84 H84       -73.7732   27.2392  -73.5143 H         1 UNK         0.3453 
     85 H85       -74.3460   26.0082  -72.4205 H         1 UNK         0.3453 
     86 H86       -74.3404   30.0133  -74.1198 H         1 UNK         0.2984 
     87 H87       -72.7825   30.1698  -75.5664 H         1 UNK         0.0554 
     88 H88       -70.6423   31.3386  -75.9359 H         1 UNK         0.0847 
     89 H89       -70.0398   30.8150  -74.3621 H         1 UNK         0.0847 
     90 H90       -71.3880   31.9377  -74.4645 H         1 UNK         0.0847 
     91 H91       -70.3869   28.8639  -75.9668 H         1 UNK         0.3141 
     92 H92       -70.4572   26.9767  -77.2415 H         1 UNK         0.0743 
     93 H93       -70.8204   25.0807  -74.8402 H         1 UNK         0.0784 
     94 H94       -69.6408   24.8725  -76.1342 H         1 UNK         0.0784 
     95 H95       -69.5051   26.2332  -75.0313 H         1 UNK         0.0784 
     96 H96       -72.9678   25.5602  -76.7833 H         1 UNK         0.3213 
     97 H97       -72.7367   24.0071  -80.0372 H         1 UNK         0.0855 
     98 H98       -73.3537   22.9200  -77.2383 H         1 UNK         0.0814 
     99 H99       -72.2325   22.2305  -78.4005 H         1 UNK         0.0814 
    100 H100      -73.9527   22.2502  -78.7546 H         1 UNK         0.0814 
    101 H101      -74.7505   24.8593  -78.0368 H         1 UNK         0.3105 
    102 H102      -75.9302   27.5214  -79.9792 H         1 UNK         0.0547 
    103 H103      -76.9267   25.8118  -81.4530 H         1 UNK         0.0837 
    104 H104      -77.2473   24.7574  -80.0857 H         1 UNK         0.0837 
    105 H105      -78.0961   26.2962  -80.2356 H         1 UNK         0.0837 
    106 H106      -76.9809   25.8171  -77.8353 H         1 UNK         0.3020 
    107 H107      -75.3726   27.5303  -75.2615 H         1 UNK         0.1245 
    108 H108      -76.9980   29.3365  -75.6251 H         1 UNK         0.0781 
    109 H109      -77.4260   28.2956  -74.2977 H         1 UNK         0.0781 
    110 H110      -80.7798   29.7031  -76.1280 H         1 UNK         0.0836 
    111 H111      -79.2310   30.4366  -76.4630 H         1 UNK         0.0836 
    112 H112      -77.5231   25.8414  -74.9423 H         1 UNK         0.3022 
    113 H113      -76.0613   22.7164  -75.8144 H         1 UNK         0.0747 
    114 H114      -76.6404   22.1818  -73.4533 H         1 UNK         0.0793 
    115 H115      -75.1842   23.1653  -73.5119 H         1 UNK         0.0793 
    116 H116      -76.7197   23.9004  -73.0673 H         1 UNK         0.0793 
    117 H117      -78.5797   23.3501  -74.6442 H         1 UNK         0.3047 
    118 H118      -80.3648   24.1526  -77.6221 H         1 UNK         0.0822 
    119 H119      -81.8103   22.3408  -76.7107 H         1 UNK         0.0807 
    120 H120      -80.4689   21.7381  -75.7386 H         1 UNK         0.0807 
    121 H121      -80.3746   21.6959  -77.4898 H         1 UNK         0.0807 
    122 H122      -81.0141   25.4572  -75.9986 H         1 UNK         0.2946 
    123 H123      -81.0596   26.5104  -74.0746 H         1 UNK         0.1144 
    124 H124      -83.1320   26.2988  -72.7112 H         1 UNK         0.0793 
    125 H125      -82.9195   24.5496  -72.6160 H         1 UNK         0.0793 
    126 H126      -83.2688   25.3161  -74.1588 H         1 UNK         0.0793 
    127 H127      -81.0873   25.7253  -71.3802 H         1 UNK         0.2896 
@<TRIPOS>BOND
     1    1    2 1    
     2    1   67 1    
     3    1   68 1    
     4    1   69 1    
     5    2    3 2    
     6    2    4 am   BACKBONE|DICT|INTERRES
     7    4    5 1    
     8    4   70 1    
     9    5    6 1    
    10    5   65 1    
    11    5   71 1    
    12    6    7 1    
    13    6   72 1    
    14    6   73 1    
    15    7    8 1    
    16    8    9 1    
    17    8   74 1    
    18    8   75 1    
    19    9   10 ar   
    20    9   14 ar   
    21   10   11 ar   
    22   10   76 1    
    23   11   12 ar   
    24   11   48 1    
    25   12   13 ar   
    26   12   77 1    
    27   13   14 ar   
    28   13   15 1    
    29   14   78 1    
    30   15   16 1    
    31   15   79 1    
    32   15   80 1    
    33   16   17 1    
    34   17   18 1    
    35   17   81 1    
    36   17   82 1    
    37   18   19 1    
    38   18   22 1    
    39   18   83 1    
    40   19   20 am   BACKBONE|DICT|INTERRES
    41   19   21 2    
    42   20   84 1    
    43   20   85 1    
    44   22   23 am   BACKBONE|DICT|INTERRES
    45   22   86 1    
    46   23   24 2    
    47   23   25 1    
    48   25   26 1    
    49   25   27 1    
    50   25   87 1    
    51   26   88 1    
    52   26   89 1    
    53   26   90 1    
    54   27   28 am   BACKBONE|DICT|INTERRES
    55   27   91 1    
    56   28   29 2    
    57   28   30 1    
    58   30   31 1    
    59   30   32 1    
    60   30   92 1    
    61   31   93 1    
    62   31   94 1    
    63   31   95 1    
    64   32   33 am   BACKBONE|DICT|INTERRES
    65   32   96 1    
    66   33   34 2    
    67   33   35 1    
    68   35   36 1    
    69   35   37 1    
    70   35   97 1    
    71   36   98 1    
    72   36   99 1    
    73   36  100 1    
    74   37   38 am   BACKBONE|DICT|INTERRES
    75   37  101 1    
    76   38   39 2    
    77   38   40 1    
    78   40   41 1    
    79   40   42 1    
    80   40  102 1    
    81   41  103 1    
    82   41  104 1    
    83   41  105 1    
    84   42   43 am   BACKBONE|DICT|INTERRES
    85   42  106 1    
    86   43   44 2    
    87   43   45 1    
    88   45   46 1    
    89   45   49 1    
    90   45  107 1    
    91   46   47 1    
    92   46  108 1    
    93   46  109 1    
    94   47   48 1    
    95   48  110 1    
    96   48  111 1    
    97   49   50 am   BACKBONE|DICT|INTERRES
    98   49  112 1    
    99   50   51 2    
   100   50   52 1    
   101   52   53 1    
   102   52   54 1    
   103   52  113 1    
   104   53  114 1    
   105   53  115 1    
   106   53  116 1    
   107   54   55 am   BACKBONE|DICT|INTERRES
   108   54  117 1    
   109   55   56 2    
   110   55   57 1    
   111   57   58 1    
   112   57   59 1    
   113   57  118 1    
   114   58  119 1    
   115   58  120 1    
   116   58  121 1    
   117   59   60 am   BACKBONE|DICT|INTERRES
   118   59  122 1    
   119   60   61 2    
   120   60   62 1    
   121   62   63 1    
   122   62   64 1    
   123   62  123 1    
   124   63  124 1    
   125   63  125 1    
   126   63  126 1    
   127   64   65 am   BACKBONE|DICT|INTERRES
   128   64  127 1    
   129   65   66 2    
@<TRIPOS>SUBSTRUCTURE
     1 UNK         1 GROUP             0       ****    0 ROOT    
