@<TRIPOS>MOLECULE
3R135
127   129    1
SMALL
USER_CHARGES


@<TRIPOS>ATOM
      1 CA        -84.1048   25.8119  -71.6502 C.3       0 UNK        -0.1998 
      2 C         -82.9184   24.8521  -71.6845 C.2       0 UNK         0.4909 
      3 O         -83.0756   23.6832  -71.3377 O.2       0 UNK        -0.5240 
      4 N         -81.7214   25.2875  -72.0938 N.am      1 UNK        -0.4739 
      5 CA        -81.3761   26.6202  -72.5848 C.3       1 UNK         0.0864 
      6 C6        -80.9708   27.5665  -71.4259 C.3       11 UNK        -0.0881 
      7 S7        -81.0347   29.3307  -71.8948 S.3       11 UNK        -0.2682 
      8 C8        -79.4719   29.9719  -71.2096 C.3       11 UNK         0.0289 
      9 C9        -78.2525   29.4793  -71.9772 C.ar      11 UNK        -0.0687 
     10 C10       -77.4972   28.4104  -71.4880 C.ar      11 UNK        -0.0823 
     11 C11       -76.3788   27.9519  -72.1871 C.ar      11 UNK        -0.0830 
     12 C12       -76.0108   28.5758  -73.3820 C.ar      11 UNK        -0.1021 
     13 C13       -76.7368   29.6688  -73.8689 C.ar      11 UNK        -0.0753 
     14 C14       -77.8623   30.1089  -73.1633 C.ar      11 UNK        -0.0933 
     15 C15       -76.3281   30.3759  -75.1594 C.3       11 UNK         0.0166 
     16 S16       -74.5336   30.6629  -75.3145 S.3       11 UNK        -0.2615 
     17 C17       -74.2060   31.6670  -73.8279 C.3       11 UNK        -0.0865 
     18 CA        -72.6957   31.9084  -73.5769 C.3       10 UNK         0.0862 
     19 C         -72.5077   32.8798  -72.3735 C.2       10 UNK         0.5551 
     20 N         -72.0085   32.4317  -71.2276 N.am      10 UNK        -0.7319 
     21 O         -72.8223   34.0621  -72.4858 O.2       10 UNK        -0.5018 
     22 N         -71.9400   30.6448  -73.4852 N.am      10 UNK        -0.4509 
     23 C         -70.6057   30.5443  -73.4995 C.2       10 UNK         0.4899 
     24 O         -69.8481   31.5049  -73.6390 O.2       10 UNK        -0.4839 
     25 CA        -70.0004   29.1410  -73.3226 C.3       9 UNK         0.0222 
     26 CB        -70.2313   28.6001  -71.8964 C.3       9 UNK        -0.1966 
     27 N         -70.4051   28.1715  -74.3495 N.am      9 UNK        -0.4218 
     28 C         -71.6128   27.6320  -74.5630 C.2       9 UNK         0.5020 
     29 O         -72.6164   27.8817  -73.8913 O.2       9 UNK        -0.5274 
     30 CA        -71.6857   26.5834  -75.6844 C.3       8 UNK         0.0270 
     31 CB        -71.4508   25.1778  -75.1096 C.3       8 UNK        -0.1976 
     32 N         -72.9775   26.6165  -76.3707 N.am      8 UNK        -0.4313 
     33 C         -73.3396   27.5601  -77.2509 C.2       8 UNK         0.5041 
     34 O         -72.5796   28.4546  -77.6287 O.2       8 UNK        -0.5577 
     35 CA        -74.7819   27.4992  -77.8027 C.3       7 UNK         0.0284 
     36 CB        -74.9314   28.2070  -79.1652 C.3       7 UNK        -0.1958 
     37 N         -75.3558   26.1492  -77.8603 N.am      7 UNK        -0.4454 
     38 C         -74.8864   25.0756  -78.5150 C.2       7 UNK         0.5089 
     39 O         -73.8814   25.0817  -79.2274 O.2       7 UNK        -0.5125 
     40 CA        -75.6777   23.7685  -78.2941 C.3       6 UNK         0.0408 
     41 CB        -74.9192   22.5099  -78.7640 C.3       6 UNK        -0.1791 
     42 N         -76.1259   23.6309  -76.9015 N.am      6 UNK        -0.4762 
     43 C         -75.3550   23.5738  -75.8041 C.2       6 UNK         0.5007 
     44 O         -74.1278   23.5009  -75.8380 O.2       6 UNK        -0.5032 
     45 CA        -76.0516   23.6849  -74.4322 C.3       5 UNK         0.0783 
     46 C46       -75.8030   25.0912  -73.8379 C.3       11 UNK        -0.0857 
     47 S47       -76.2913   25.1901  -72.0880 S.3       11 UNK        -0.2512 
     48 C48       -75.5627   26.7937  -71.6355 C.3       11 UNK         0.0225 
     49 N         -77.4841   23.3777  -74.4956 N.am      5 UNK        -0.4615 
     50 C         -77.9954   22.1508  -74.6585 C.2       4 UNK         0.5053 
     51 O         -77.3173   21.1249  -74.7121 O.2       4 UNK        -0.5105 
     52 CA        -79.5199   22.0619  -74.8216 C.3       4 UNK         0.0263 
     53 CB        -80.2152   22.0381  -73.4507 C.3       4 UNK        -0.1981 
     54 N         -80.0360   23.1729  -75.6263 N.am      4 UNK        -0.4224 
     55 C         -79.9415   23.2396  -76.9629 C.2       3 UNK         0.4895 
     56 O         -79.4618   22.3456  -77.6598 O.2       3 UNK        -0.5091 
     57 CA        -80.4517   24.5210  -77.6449 C.3       3 UNK         0.0250 
     58 CB        -81.9321   24.3708  -78.0300 C.3       3 UNK        -0.1996 
     59 N         -80.2831   25.7238  -76.8269 N.am      3 UNK        -0.4254 
     60 C         -79.1020   26.2806  -76.5252 C.2       2 UNK         0.5004 
     61 O         -78.0171   25.8537  -76.9171 O.2       2 UNK        -0.5226 
     62 CA        -79.1312   27.5032  -75.5972 C.3       2 UNK         0.0269 
     63 CB        -79.3431   28.7832  -76.4210 C.3       2 UNK        -0.1926 
     64 N         -80.1433   27.4360  -74.5379 N.am      2 UNK        -0.4687 
     65 C         -80.2632   26.4524  -73.6357 C.2       1 UNK         0.5165 
     66 O         -79.5622   25.4350  -73.6333 O.2       1 UNK        -0.5079 
     67 H67       -84.4420   26.0384  -72.6614 H         1 UNK         0.0900 
     68 H68       -84.9404   25.3658  -71.1113 H         1 UNK         0.0900 
     69 H69       -83.8516   26.7443  -71.1468 H         1 UNK         0.0900 
     70 H70       -80.9491   24.6360  -72.1563 H         1 UNK         0.2959 
     71 H71       -82.2410   27.0352  -73.1056 H         1 UNK         0.1079 
     72 H72       -79.9890   27.2982  -71.0368 H         1 UNK         0.0837 
     73 H73       -81.6526   27.4445  -70.5835 H         1 UNK         0.0837 
     74 H74       -79.4004   29.7000  -70.1553 H         1 UNK         0.0685 
     75 H75       -79.4996   31.0620  -71.2385 H         1 UNK         0.0685 
     76 H76       -77.7786   27.9291  -70.5617 H         1 UNK         0.1434 
     77 H77       -75.1471   28.2202  -73.9259 H         1 UNK         0.1329 
     78 H78       -78.4404   30.9435  -73.5357 H         1 UNK         0.1335 
     79 H79       -76.6548   29.7756  -76.0073 H         1 UNK         0.0680 
     80 H80       -76.8371   31.3370  -75.2471 H         1 UNK         0.0680 
     81 H81       -74.6496   31.1773  -72.9591 H         1 UNK         0.1032 
     82 H82       -74.7333   32.6158  -73.9453 H         1 UNK         0.1032 
     83 H83       -72.3049   32.4373  -74.4483 H         1 UNK         0.0461 
     84 H84       -71.8885   33.0691  -70.4562 H         1 UNK         0.3453 
     85 H85       -71.7526   31.4629  -71.1293 H         1 UNK         0.3453 
     86 H86       -72.4805   29.7853  -73.4436 H         1 UNK         0.2984 
     87 H87       -68.9219   29.2526  -73.4462 H         1 UNK         0.0554 
     88 H88       -69.8370   29.2915  -71.1506 H         1 UNK         0.0847 
     89 H89       -69.7264   27.6454  -71.7495 H         1 UNK         0.0847 
     90 H90       -71.2886   28.4544  -71.6737 H         1 UNK         0.0847 
     91 H91       -69.6628   27.8983  -74.9790 H         1 UNK         0.3141 
     92 H92       -70.9031   26.7905  -76.4178 H         1 UNK         0.0743 
     93 H93       -70.4749   25.1088  -74.6273 H         1 UNK         0.0784 
     94 H94       -71.4787   24.4192  -75.8923 H         1 UNK         0.0784 
     95 H95       -72.2017   24.9166  -74.3627 H         1 UNK         0.0784 
     96 H96       -73.6394   25.8940  -76.1271 H         1 UNK         0.3213 
     97 H97       -75.3907   28.0463  -77.0826 H         1 UNK         0.0855 
     98 H98       -74.3069   27.7440  -79.9297 H         1 UNK         0.0814 
     99 H99       -74.6393   29.2556  -79.0961 H         1 UNK         0.0814 
    100 H100      -75.9640   28.1830  -79.5133 H         1 UNK         0.0814 
    101 H101      -76.2382   26.0248  -77.3647 H         1 UNK         0.3105 
    102 H102      -76.5832   23.8535  -78.8967 H         1 UNK         0.0547 
    103 H103      -75.5045   21.6071  -78.5905 H         1 UNK         0.0837 
    104 H104      -73.9636   22.3948  -78.2519 H         1 UNK         0.0837 
    105 H105      -74.7087   22.5593  -79.8329 H         1 UNK         0.0837 
    106 H106      -77.1194   23.7602  -76.7569 H         1 UNK         0.3020 
    107 H107      -75.5735   22.9463  -73.7844 H         1 UNK         0.1245 
    108 H108      -76.3495   25.8497  -74.4013 H         1 UNK         0.0781 
    109 H109      -74.7460   25.3598  -73.8997 H         1 UNK         0.0781 
    110 H110      -74.5301   26.8481  -71.9851 H         1 UNK         0.0836 
    111 H111      -75.5160   26.8645  -70.5478 H         1 UNK         0.0836 
    112 H112      -78.1190   24.1605  -74.3774 H         1 UNK         0.3022 
    113 H113      -79.7512   21.1249  -75.3332 H         1 UNK         0.0747 
    114 H114      -81.3000   21.9994  -73.5526 H         1 UNK         0.0793 
    115 H115      -79.9121   21.1593  -72.8801 H         1 UNK         0.0793 
    116 H116      -79.9642   22.9122  -72.8503 H         1 UNK         0.0793 
    117 H117      -80.3803   23.9778  -75.1204 H         1 UNK         0.3047 
    118 H118      -79.8724   24.6559  -78.5613 H         1 UNK         0.0822 
    119 H119      -82.2867   25.2367  -78.5896 H         1 UNK         0.0807 
    120 H120      -82.5694   24.2525  -77.1527 H         1 UNK         0.0807 
    121 H121      -82.0832   23.4950  -78.6629 H         1 UNK         0.0807 
    122 H122      -81.1204   26.1529  -76.4607 H         1 UNK         0.2946 
    123 H123      -78.1565   27.5558  -75.1094 H         1 UNK         0.1144 
    124 H124      -79.2653   29.6749  -75.7993 H         1 UNK         0.0793 
    125 H125      -80.3222   28.7966  -76.9013 H         1 UNK         0.0793 
    126 H126      -78.5942   28.8702  -77.2095 H         1 UNK         0.0793 
    127 H127      -80.7425   28.2442  -74.4434 H         1 UNK         0.2896 
@<TRIPOS>BOND
     1    1    2 1    
     2    1   67 1    
     3    1   68 1    
     4    1   69 1    
     5    2    3 2    
     6    2    4 am   BACKBONE|DICT|INTERRES
     7    4    5 1    
     8    4   70 1    
     9    5    6 1    
    10    5   65 1    
    11    5   71 1    
    12    6    7 1    
    13    6   72 1    
    14    6   73 1    
    15    7    8 1    
    16    8    9 1    
    17    8   74 1    
    18    8   75 1    
    19    9   10 ar   
    20    9   14 ar   
    21   10   11 ar   
    22   10   76 1    
    23   11   12 ar   
    24   11   48 1    
    25   12   13 ar   
    26   12   77 1    
    27   13   14 ar   
    28   13   15 1    
    29   14   78 1    
    30   15   16 1    
    31   15   79 1    
    32   15   80 1    
    33   16   17 1    
    34   17   18 1    
    35   17   81 1    
    36   17   82 1    
    37   18   19 1    
    38   18   22 1    
    39   18   83 1    
    40   19   20 am   BACKBONE|DICT|INTERRES
    41   19   21 2    
    42   20   84 1    
    43   20   85 1    
    44   22   23 am   BACKBONE|DICT|INTERRES
    45   22   86 1    
    46   23   24 2    
    47   23   25 1    
    48   25   26 1    
    49   25   27 1    
    50   25   87 1    
    51   26   88 1    
    52   26   89 1    
    53   26   90 1    
    54   27   28 am   BACKBONE|DICT|INTERRES
    55   27   91 1    
    56   28   29 2    
    57   28   30 1    
    58   30   31 1    
    59   30   32 1    
    60   30   92 1    
    61   31   93 1    
    62   31   94 1    
    63   31   95 1    
    64   32   33 am   BACKBONE|DICT|INTERRES
    65   32   96 1    
    66   33   34 2    
    67   33   35 1    
    68   35   36 1    
    69   35   37 1    
    70   35   97 1    
    71   36   98 1    
    72   36   99 1    
    73   36  100 1    
    74   37   38 am   BACKBONE|DICT|INTERRES
    75   37  101 1    
    76   38   39 2    
    77   38   40 1    
    78   40   41 1    
    79   40   42 1    
    80   40  102 1    
    81   41  103 1    
    82   41  104 1    
    83   41  105 1    
    84   42   43 am   BACKBONE|DICT|INTERRES
    85   42  106 1    
    86   43   44 2    
    87   43   45 1    
    88   45   46 1    
    89   45   49 1    
    90   45  107 1    
    91   46   47 1    
    92   46  108 1    
    93   46  109 1    
    94   47   48 1    
    95   48  110 1    
    96   48  111 1    
    97   49   50 am   BACKBONE|DICT|INTERRES
    98   49  112 1    
    99   50   51 2    
   100   50   52 1    
   101   52   53 1    
   102   52   54 1    
   103   52  113 1    
   104   53  114 1    
   105   53  115 1    
   106   53  116 1    
   107   54   55 am   BACKBONE|DICT|INTERRES
   108   54  117 1    
   109   55   56 2    
   110   55   57 1    
   111   57   58 1    
   112   57   59 1    
   113   57  118 1    
   114   58  119 1    
   115   58  120 1    
   116   58  121 1    
   117   59   60 am   BACKBONE|DICT|INTERRES
   118   59  122 1    
   119   60   61 2    
   120   60   62 1    
   121   62   63 1    
   122   62   64 1    
   123   62  123 1    
   124   63  124 1    
   125   63  125 1    
   126   63  126 1    
   127   64   65 am   BACKBONE|DICT|INTERRES
   128   64  127 1    
   129   65   66 2    
@<TRIPOS>SUBSTRUCTURE
     1 UNK         1 GROUP             0       ****    0 ROOT    
