@<TRIPOS>MOLECULE
3R135
127   129    1
SMALL
USER_CHARGES


@<TRIPOS>ATOM
      1 CA        -84.6836   30.3994  -75.1012 C.3       0 UNK        -0.1998 
      2 C         -83.5217   30.9916  -74.3182 C.2       0 UNK         0.4909 
      3 O         -83.0313   32.0658  -74.6668 O.2       0 UNK        -0.5240 
      4 N         -83.0773   30.2995  -73.2613 N.am      1 UNK        -0.4739 
      5 CA        -81.9478   30.6961  -72.4090 C.3       1 UNK         0.0864 
      6 C6        -82.0344   30.0484  -71.0017 C.3       11 UNK        -0.0881 
      7 S7        -82.2180   28.2262  -71.0058 S.3       11 UNK        -0.2682 
      8 C8        -80.9707   27.7029  -69.7837 C.3       11 UNK         0.0289 
      9 C9        -79.6496   27.3362  -70.4440 C.ar      11 UNK        -0.0687 
     10 C10       -79.3341   25.9965  -70.6884 C.ar      11 UNK        -0.0823 
     11 C11       -78.1231   25.6532  -71.2950 C.ar      11 UNK        -0.0830 
     12 C12       -77.2349   26.6625  -71.6776 C.ar      11 UNK        -0.1021 
     13 C13       -77.5282   28.0114  -71.4279 C.ar      11 UNK        -0.0753 
     14 C14       -78.7360   28.3315  -70.8003 C.ar      11 UNK        -0.0933 
     15 C15       -76.6010   29.1626  -71.8290 C.3       11 UNK         0.0166 
     16 S16       -74.9701   28.6724  -72.4839 S.3       11 UNK        -0.2615 
     17 C17       -74.5338   30.1384  -73.4753 C.3       11 UNK        -0.0865 
     18 CA        -75.0008   30.0272  -74.9515 C.3       10 UNK         0.0862 
     19 C         -74.6512   31.3317  -75.7272 C.2       10 UNK         0.5551 
     20 N         -73.7131   31.3200  -76.6683 N.am      10 UNK        -0.7319 
     21 O         -75.2451   32.3742  -75.4650 O.2       10 UNK        -0.5018 
     22 N         -74.5194   28.7927  -75.5896 N.am      10 UNK        -0.4509 
     23 C         -74.9474   28.3045  -76.7616 C.2       10 UNK         0.4899 
     24 O         -75.9136   28.7581  -77.3757 O.2       10 UNK        -0.4839 
     25 CA        -74.1533   27.1200  -77.3537 C.3       9 UNK         0.0222 
     26 CB        -74.1481   27.1253  -78.8960 C.3       9 UNK        -0.1966 
     27 N         -72.7869   26.9878  -76.8281 N.am      9 UNK        -0.4218 
     28 C         -71.7944   27.8924  -76.8887 C.2       9 UNK         0.5020 
     29 O         -71.9099   28.9903  -77.4365 O.2       9 UNK        -0.5274 
     30 CA        -70.4735   27.5647  -76.1628 C.3       8 UNK         0.0270 
     31 CB        -70.2400   28.5568  -75.0093 C.3       8 UNK        -0.1976 
     32 N         -70.4231   26.2032  -75.6235 N.am      8 UNK        -0.4313 
     33 C         -70.1545   25.1011  -76.3359 C.2       8 UNK         0.5041 
     34 O         -69.8345   25.1147  -77.5248 O.2       8 UNK        -0.5577 
     35 CA        -70.2967   23.7521  -75.6043 C.3       7 UNK         0.0284 
     36 CB        -68.9347   23.2902  -75.0610 C.3       7 UNK        -0.1958 
     37 N         -71.2813   23.7573  -74.5117 N.am      7 UNK        -0.4454 
     38 C         -72.5916   23.9914  -74.6652 C.2       7 UNK         0.5089 
     39 O         -73.1102   24.2948  -75.7416 O.2       7 UNK        -0.5125 
     40 CA        -73.4551   23.9460  -73.3992 C.3       6 UNK         0.0408 
     41 CB        -73.6017   25.3579  -72.8163 C.3       6 UNK        -0.1791 
     42 N         -74.7785   23.4413  -73.7546 N.am      6 UNK        -0.4762 
     43 C         -75.2344   22.2121  -73.4776 C.2       6 UNK         0.5007 
     44 O         -74.6549   21.4188  -72.7345 O.2       6 UNK        -0.5032 
     45 CA        -76.5457   21.7747  -74.1676 C.3       5 UNK         0.0783 
     46 C46       -77.7698   21.9183  -73.2232 C.3       11 UNK        -0.0857 
     47 S47       -78.4436   23.6151  -73.1155 S.3       11 UNK        -0.2512 
     48 C48       -77.7697   24.1926  -71.5324 C.3       11 UNK         0.0225 
     49 N         -76.7572   22.4591  -75.4467 N.am      5 UNK        -0.4615 
     50 C         -75.9946   22.3407  -76.5402 C.2       4 UNK         0.5053 
     51 O         -75.1169   21.4844  -76.6548 O.2       4 UNK        -0.5105 
     52 CA        -76.2314   23.3421  -77.6941 C.3       4 UNK         0.0263 
     53 CB        -76.3148   22.6205  -79.0510 C.3       4 UNK        -0.1981 
     54 N         -77.4115   24.2077  -77.5502 N.am      4 UNK        -0.4224 
     55 C         -77.5765   25.1863  -76.6501 C.2       3 UNK         0.4895 
     56 O         -76.7537   25.4609  -75.7726 O.2       3 UNK        -0.5091 
     57 CA        -78.9065   25.9462  -76.7171 C.3       3 UNK         0.0250 
     58 CB        -80.0776   25.0558  -76.2468 C.3       3 UNK        -0.1996 
     59 N         -78.7936   27.1451  -75.8911 N.am      3 UNK        -0.4254 
     60 C         -79.6885   28.1327  -75.8028 C.2       2 UNK         0.5004 
     61 O         -80.7629   28.1545  -76.4095 O.2       2 UNK        -0.5226 
     62 CA        -79.3256   29.3099  -74.8955 C.3       2 UNK         0.0269 
     63 CB        -78.8053   30.5003  -75.7247 C.3       2 UNK        -0.1926 
     64 N         -80.5224   29.6867  -74.1518 N.am      2 UNK        -0.4687 
     65 C         -80.5688   30.4718  -73.0697 C.2       1 UNK         0.5165 
     66 O         -79.5778   31.0208  -72.5862 O.2       1 UNK        -0.5079 
     67 H67       -85.5214   31.0960  -75.1143 H         1 UNK         0.0900 
     68 H68       -85.0301   29.4607  -74.6691 H         1 UNK         0.0900 
     69 H69       -84.3824   30.2080  -76.1308 H         1 UNK         0.0900 
     70 H70       -83.5120   29.4210  -73.0135 H         1 UNK         0.2959 
     71 H71       -82.0188   31.7763  -72.2610 H         1 UNK         0.1079 
     72 H72       -81.1758   30.3424  -70.3958 H         1 UNK         0.0837 
     73 H73       -82.9010   30.4555  -70.4785 H         1 UNK         0.0837 
     74 H74       -81.3646   26.8423  -69.2409 H         1 UNK         0.0685 
     75 H75       -80.8177   28.4804  -69.0340 H         1 UNK         0.0685 
     76 H76       -80.0314   25.2187  -70.4079 H         1 UNK         0.1434 
     77 H77       -76.3180   26.3798  -72.1717 H         1 UNK         0.1329 
     78 H78       -78.9737   29.3672  -70.6026 H         1 UNK         0.1335 
     79 H79       -76.4392   29.8097  -70.9658 H         1 UNK         0.0680 
     80 H80       -77.1125   29.7708  -72.5747 H         1 UNK         0.0680 
     81 H81       -73.4503   30.2637  -73.4305 H         1 UNK         0.1032 
     82 H82       -74.9568   31.0261  -73.0004 H         1 UNK         0.1032 
     83 H83       -76.0891   29.9653  -74.9390 H         1 UNK         0.0461 
     84 H84       -73.5011   32.1725  -77.1611 H         1 UNK         0.3453 
     85 H85       -73.2080   30.4698  -76.8942 H         1 UNK         0.3453 
     86 H86       -73.7355   28.3435  -75.1435 H         1 UNK         0.2984 
     87 H87       -74.6715   26.2182  -77.0350 H         1 UNK         0.0554 
     88 H88       -73.6020   26.2697  -79.2931 H         1 UNK         0.0847 
     89 H89       -73.6916   28.0315  -79.2952 H         1 UNK         0.0847 
     90 H90       -75.1632   27.0702  -79.2914 H         1 UNK         0.0847 
     91 H91       -72.6069   26.1000  -76.3683 H         1 UNK         0.3141 
     92 H92       -69.6665   27.6868  -76.8884 H         1 UNK         0.0743 
     93 H93       -70.2232   29.5853  -75.3732 H         1 UNK         0.0784 
     94 H94       -71.0236   28.4927  -74.2531 H         1 UNK         0.0784 
     95 H95       -69.2833   28.3764  -74.5185 H         1 UNK         0.0784 
     96 H96       -70.6543   26.0903  -74.6472 H         1 UNK         0.3213 
     97 H97       -70.6342   23.0221  -76.3434 H         1 UNK         0.0855 
     98 H98       -68.5553   23.9645  -74.2922 H         1 UNK         0.0814 
     99 H99       -68.1897   23.2527  -75.8572 H         1 UNK         0.0814 
    100 H100      -68.9958   22.2898  -74.6320 H         1 UNK         0.0814 
    101 H101      -70.9349   23.5280  -73.5904 H         1 UNK         0.3105 
    102 H102      -72.9757   23.3040  -72.6573 H         1 UNK         0.0547 
    103 H103      -74.0893   26.0315  -73.5223 H         1 UNK         0.0837 
    104 H104      -74.1909   25.3465  -71.8997 H         1 UNK         0.0837 
    105 H105      -72.6312   25.7887  -72.5678 H         1 UNK         0.0837 
    106 H106      -75.2951   24.0020  -74.4224 H         1 UNK         0.3020 
    107 H107      -76.4237   20.7120  -74.3899 H         1 UNK         0.1245 
    108 H108      -77.5492   21.5376  -72.2238 H         1 UNK         0.0781 
    109 H109      -78.5755   21.2850  -73.5975 H         1 UNK         0.0781 
    110 H110      -76.6865   24.0633  -71.5249 H         1 UNK         0.0836 
    111 H111      -78.1607   23.5746  -70.7227 H         1 UNK         0.0836 
    112 H112      -77.4336   23.2091  -75.4213 H         1 UNK         0.3022 
    113 H113      -75.3520   23.9889  -77.7147 H         1 UNK         0.0747 
    114 H114      -76.4024   23.3302  -79.8740 H         1 UNK         0.0793 
    115 H115      -75.4192   22.0264  -79.2385 H         1 UNK         0.0793 
    116 H116      -77.1695   21.9446  -79.0952 H         1 UNK         0.0793 
    117 H117      -78.1591   24.0376  -78.2081 H         1 UNK         0.3047 
    118 H118      -79.0693   26.2529  -77.7523 H         1 UNK         0.0822 
    119 H119      -80.0814   24.0888  -76.7508 H         1 UNK         0.0807 
    120 H120      -81.0409   25.5202  -76.4562 H         1 UNK         0.0807 
    121 H121      -80.0329   24.8668  -75.1751 H         1 UNK         0.0807 
    122 H122      -77.9205   27.1926  -75.3781 H         1 UNK         0.2946 
    123 H123      -78.5590   28.9858  -74.1899 H         1 UNK         0.1144 
    124 H124      -77.9914   30.1964  -76.3833 H         1 UNK         0.0793 
    125 H125      -78.4238   31.2975  -75.0866 H         1 UNK         0.0793 
    126 H126      -79.5897   30.9212  -76.3548 H         1 UNK         0.0793 
    127 H127      -81.3802   29.2731  -74.4943 H         1 UNK         0.2896 
@<TRIPOS>BOND
     1    1    2 1    
     2    1   67 1    
     3    1   68 1    
     4    1   69 1    
     5    2    3 2    
     6    2    4 am   BACKBONE|DICT|INTERRES
     7    4    5 1    
     8    4   70 1    
     9    5    6 1    
    10    5   65 1    
    11    5   71 1    
    12    6    7 1    
    13    6   72 1    
    14    6   73 1    
    15    7    8 1    
    16    8    9 1    
    17    8   74 1    
    18    8   75 1    
    19    9   10 ar   
    20    9   14 ar   
    21   10   11 ar   
    22   10   76 1    
    23   11   12 ar   
    24   11   48 1    
    25   12   13 ar   
    26   12   77 1    
    27   13   14 ar   
    28   13   15 1    
    29   14   78 1    
    30   15   16 1    
    31   15   79 1    
    32   15   80 1    
    33   16   17 1    
    34   17   18 1    
    35   17   81 1    
    36   17   82 1    
    37   18   19 1    
    38   18   22 1    
    39   18   83 1    
    40   19   20 am   BACKBONE|DICT|INTERRES
    41   19   21 2    
    42   20   84 1    
    43   20   85 1    
    44   22   23 am   BACKBONE|DICT|INTERRES
    45   22   86 1    
    46   23   24 2    
    47   23   25 1    
    48   25   26 1    
    49   25   27 1    
    50   25   87 1    
    51   26   88 1    
    52   26   89 1    
    53   26   90 1    
    54   27   28 am   BACKBONE|DICT|INTERRES
    55   27   91 1    
    56   28   29 2    
    57   28   30 1    
    58   30   31 1    
    59   30   32 1    
    60   30   92 1    
    61   31   93 1    
    62   31   94 1    
    63   31   95 1    
    64   32   33 am   BACKBONE|DICT|INTERRES
    65   32   96 1    
    66   33   34 2    
    67   33   35 1    
    68   35   36 1    
    69   35   37 1    
    70   35   97 1    
    71   36   98 1    
    72   36   99 1    
    73   36  100 1    
    74   37   38 am   BACKBONE|DICT|INTERRES
    75   37  101 1    
    76   38   39 2    
    77   38   40 1    
    78   40   41 1    
    79   40   42 1    
    80   40  102 1    
    81   41  103 1    
    82   41  104 1    
    83   41  105 1    
    84   42   43 am   BACKBONE|DICT|INTERRES
    85   42  106 1    
    86   43   44 2    
    87   43   45 1    
    88   45   46 1    
    89   45   49 1    
    90   45  107 1    
    91   46   47 1    
    92   46  108 1    
    93   46  109 1    
    94   47   48 1    
    95   48  110 1    
    96   48  111 1    
    97   49   50 am   BACKBONE|DICT|INTERRES
    98   49  112 1    
    99   50   51 2    
   100   50   52 1    
   101   52   53 1    
   102   52   54 1    
   103   52  113 1    
   104   53  114 1    
   105   53  115 1    
   106   53  116 1    
   107   54   55 am   BACKBONE|DICT|INTERRES
   108   54  117 1    
   109   55   56 2    
   110   55   57 1    
   111   57   58 1    
   112   57   59 1    
   113   57  118 1    
   114   58  119 1    
   115   58  120 1    
   116   58  121 1    
   117   59   60 am   BACKBONE|DICT|INTERRES
   118   59  122 1    
   119   60   61 2    
   120   60   62 1    
   121   62   63 1    
   122   62   64 1    
   123   62  123 1    
   124   63  124 1    
   125   63  125 1    
   126   63  126 1    
   127   64   65 am   BACKBONE|DICT|INTERRES
   128   64  127 1    
   129   65   66 2    
@<TRIPOS>SUBSTRUCTURE
     1 UNK         1 GROUP             0       ****    0 ROOT    
