@<TRIPOS>MOLECULE
3R135
127   129    1
SMALL
USER_CHARGES


@<TRIPOS>ATOM
      1 CA        -76.6378   21.3284  -72.8064 C.3       0 UNK        -0.1998 
      2 C         -77.9679   21.9691  -72.4401 C.2       0 UNK         0.4909 
      3 O         -79.0233   21.4191  -72.7570 O.2       0 UNK        -0.5240 
      4 N         -77.9287   23.1224  -71.7614 N.am      1 UNK        -0.4739 
      5 CA        -79.1132   23.8767  -71.3426 C.3       1 UNK         0.0864 
      6 C6        -78.7843   24.8820  -70.2111 C.3       11 UNK        -0.0881 
      7 S7        -77.5670   26.1702  -70.6667 S.3       11 UNK        -0.2682 
      8 C8        -78.5204   27.7054  -70.4308 C.3       11 UNK         0.0289 
      9 C9        -78.4716   28.5916  -71.6650 C.ar      11 UNK        -0.0687 
     10 C10       -79.5600   28.6523  -72.5401 C.ar      11 UNK        -0.0823 
     11 C11       -79.5334   29.5062  -73.6478 C.ar      11 UNK        -0.0830 
     12 C12       -78.3994   30.2911  -73.8867 C.ar      11 UNK        -0.1021 
     13 C13       -77.3013   30.2295  -73.0225 C.ar      11 UNK        -0.0753 
     14 C14       -77.3470   29.3823  -71.9117 C.ar      11 UNK        -0.0933 
     15 C15       -76.0778   31.1028  -73.2536 C.3       11 UNK         0.0166 
     16 S16       -74.6147   30.1079  -73.6739 S.3       11 UNK        -0.2615 
     17 C17       -73.3041   31.3753  -73.5570 C.3       11 UNK        -0.0865 
     18 CA        -72.1838   31.1914  -74.6215 C.3       10 UNK         0.0862 
     19 C         -71.1921   32.3949  -74.6747 C.2       10 UNK         0.5551 
     20 N         -69.9335   32.1943  -75.0466 N.am      10 UNK        -0.7319 
     21 O         -71.5717   33.5331  -74.4089 O.2       10 UNK        -0.5018 
     22 N         -71.5441   29.8631  -74.5590 N.am      10 UNK        -0.4509 
     23 C         -70.7967   29.3964  -73.5484 C.2       10 UNK         0.4899 
     24 O         -70.5452   30.0380  -72.5264 O.2       10 UNK        -0.4839 
     25 CA        -70.2214   27.9772  -73.7255 C.3       9 UNK         0.0222 
     26 CB        -69.4133   27.4960  -72.5011 C.3       9 UNK        -0.1966 
     27 N         -71.2375   26.9852  -74.0935 N.am      9 UNK        -0.4218 
     28 C         -72.3428   26.6368  -73.4188 C.2       9 UNK         0.5020 
     29 O         -72.6670   27.1266  -72.3357 O.2       9 UNK        -0.5274 
     30 CA        -73.2184   25.5329  -74.0580 C.3       8 UNK         0.0270 
     31 CB        -74.5302   25.2982  -73.2824 C.3       8 UNK        -0.1976 
     32 N         -73.5405   25.7869  -75.4678 N.am      8 UNK        -0.4313 
     33 C         -72.6917   25.7049  -76.5022 C.2       8 UNK         0.5041 
     34 O         -71.5153   25.3564  -76.3876 O.2       8 UNK        -0.5577 
     35 CA        -73.2114   26.1422  -77.8822 C.3       7 UNK         0.0284 
     36 CB        -73.9266   24.9860  -78.5979 C.3       7 UNK        -0.1958 
     37 N         -74.0983   27.3054  -77.8177 N.am      7 UNK        -0.4454 
     38 C         -73.7448   28.5317  -77.4116 C.2       7 UNK         0.5089 
     39 O         -72.5978   28.8323  -77.0780 O.2       7 UNK        -0.5125 
     40 CA        -74.8522   29.6021  -77.3372 C.3       6 UNK         0.0408 
     41 CB        -75.0187   30.3339  -78.6828 C.3       6 UNK        -0.1791 
     42 N         -76.1317   29.1049  -76.8065 N.am      6 UNK        -0.4762 
     43 C         -76.9963   28.2589  -77.3835 C.2       6 UNK         0.5007 
     44 O         -76.8693   27.8232  -78.5306 O.2       6 UNK        -0.5032 
     45 CA        -78.1764   27.7756  -76.5166 C.3       5 UNK         0.0783 
     46 C46       -79.4475   28.5872  -76.8583 C.3       11 UNK        -0.0857 
     47 S47       -80.8296   28.2113  -75.7349 S.3       11 UNK        -0.2512 
     48 C48       -80.7459   29.6012  -74.5634 C.3       11 UNK         0.0225 
     49 N         -78.3773   26.3270  -76.6603 N.am      5 UNK        -0.4615 
     50 C         -77.4419   25.4050  -76.3937 C.2       4 UNK         0.5053 
     51 O         -76.3302   25.6830  -75.9412 O.2       4 UNK        -0.5105 
     52 CA        -77.7943   23.9433  -76.7041 C.3       4 UNK         0.0263 
     53 CB        -76.7535   22.9506  -76.1515 C.3       4 UNK        -0.1981 
     54 N         -79.1139   23.6039  -76.1737 N.am      4 UNK        -0.4224 
     55 C         -80.0093   22.8227  -76.7967 C.2       3 UNK         0.4895 
     56 O         -79.8369   22.3648  -77.9273 O.2       3 UNK        -0.5091 
     57 CA        -81.3087   22.4565  -76.0512 C.3       3 UNK         0.0250 
     58 CB        -81.3041   20.9683  -75.6630 C.3       3 UNK        -0.1996 
     59 N         -81.5317   23.2564  -74.8472 N.am      3 UNK        -0.4254 
     60 C         -82.0075   24.5088  -74.8428 C.2       2 UNK         0.5004 
     61 O         -82.4255   25.0764  -75.8518 O.2       2 UNK        -0.5226 
     62 CA        -82.0062   25.2645  -73.4972 C.3       2 UNK         0.0269 
     63 CB        -83.4366   25.3999  -72.9507 C.3       2 UNK        -0.1926 
     64 N         -81.1491   24.6773  -72.4570 N.am      2 UNK        -0.4687 
     65 C         -79.8185   24.5375  -72.5465 C.2       1 UNK         0.5165 
     66 O         -79.1689   24.8804  -73.5370 O.2       1 UNK        -0.5079 
     67 H67       -76.4230   20.5018  -72.1299 H         1 UNK         0.0900 
     68 H68       -76.6741   20.9334  -73.8212 H         1 UNK         0.0900 
     69 H69       -75.8156   22.0415  -72.7488 H         1 UNK         0.0900 
     70 H70       -77.0432   23.5651  -71.5617 H         1 UNK         0.2959 
     71 H71       -79.8140   23.1492  -70.9257 H         1 UNK         0.1079 
     72 H72       -78.3753   24.3376  -69.3584 H         1 UNK         0.0837 
     73 H73       -79.7040   25.3333  -69.8371 H         1 UNK         0.0837 
     74 H74       -79.5580   27.4933  -70.1731 H         1 UNK         0.0685 
     75 H75       -78.1069   28.2448  -69.5775 H         1 UNK         0.0685 
     76 H76       -80.4351   28.0457  -72.3520 H         1 UNK         0.1434 
     77 H77       -78.3782   30.9600  -74.7363 H         1 UNK         0.1329 
     78 H78       -76.5031   29.3392  -71.2365 H         1 UNK         0.1335 
     79 H79       -75.8774   31.6767  -72.3474 H         1 UNK         0.0680 
     80 H80       -76.2595   31.8275  -74.0490 H         1 UNK         0.0680 
     81 H81       -72.8866   31.3546  -72.5493 H         1 UNK         0.1032 
     82 H82       -73.7667   32.3575  -73.6686 H         1 UNK         0.1032 
     83 H83       -72.6677   31.2235  -75.5964 H         1 UNK         0.0461 
     84 H84       -69.6141   31.2685  -75.2820 H         1 UNK         0.3453 
     85 H85       -69.2989   32.9761  -75.0901 H         1 UNK         0.3453 
     86 H86       -71.7125   29.2753  -75.3700 H         1 UNK         0.2984 
     87 H87       -69.5328   28.0318  -74.5697 H         1 UNK         0.0554 
     88 H88       -68.5889   28.1765  -72.2848 H         1 UNK         0.0847 
     89 H89       -68.9813   26.5101  -72.6726 H         1 UNK         0.0847 
     90 H90       -70.0315   27.4399  -71.6044 H         1 UNK         0.0847 
     91 H91       -71.0901   26.5019  -74.9784 H         1 UNK         0.3141 
     92 H92       -72.6393   24.6087  -74.0086 H         1 UNK         0.0743 
     93 H93       -75.1029   24.4755  -73.7096 H         1 UNK         0.0784 
     94 H94       -74.3348   25.0469  -72.2392 H         1 UNK         0.0784 
     95 H95       -75.1660   26.1852  -73.2914 H         1 UNK         0.0784 
     96 H96       -74.5134   26.0170  -75.6650 H         1 UNK         0.3213 
     97 H97       -72.3425   26.4247  -78.4805 H         1 UNK         0.0855 
     98 H98       -74.8503   24.7075  -78.0922 H         1 UNK         0.0814 
     99 H99       -73.2936   24.0985  -78.6381 H         1 UNK         0.0814 
    100 H100      -74.1767   25.2519  -79.6251 H         1 UNK         0.0814 
    101 H101      -75.0680   27.1698  -78.0860 H         1 UNK         0.3105 
    102 H102      -74.5193   30.3476  -76.6169 H         1 UNK         0.0547 
    103 H103      -74.0855   30.8163  -78.9758 H         1 UNK         0.0837 
    104 H104      -75.2947   29.6565  -79.4911 H         1 UNK         0.0837 
    105 H105      -75.7795   31.1117  -78.6207 H         1 UNK         0.0837 
    106 H106      -76.3015   29.3632  -75.8431 H         1 UNK         0.3020 
    107 H107      -77.9204   27.9459  -75.4685 H         1 UNK         0.1245 
    108 H108      -79.2479   29.6600  -76.8248 H         1 UNK         0.0781 
    109 H109      -79.7722   28.3753  -77.8789 H         1 UNK         0.0781 
    110 H110      -81.6545   29.6028  -73.9594 H         1 UNK         0.0836 
    111 H111      -80.7489   30.5453  -75.1105 H         1 UNK         0.0836 
    112 H112      -79.2715   26.0314  -77.0226 H         1 UNK         0.3022 
    113 H113      -77.7977   23.8618  -77.7929 H         1 UNK         0.0747 
    114 H114      -75.7687   23.1235  -76.5854 H         1 UNK         0.0793 
    115 H115      -76.6538   23.0530  -75.0718 H         1 UNK         0.0793 
    116 H116      -77.0277   21.9188  -76.3711 H         1 UNK         0.0793 
    117 H117      -79.3201   23.9816  -75.2511 H         1 UNK         0.3047 
    118 H118      -82.1376   22.6238  -76.7425 H         1 UNK         0.0822 
    119 H119      -82.2377   20.6805  -75.1792 H         1 UNK         0.0807 
    120 H120      -80.4853   20.7313  -74.9826 H         1 UNK         0.0807 
    121 H121      -81.1888   20.3345  -76.5433 H         1 UNK         0.0807 
    122 H122      -81.2068   22.8625  -73.9753 H         1 UNK         0.2946 
    123 H123      -81.6246   26.2655  -73.7043 H         1 UNK         0.1144 
    124 H124      -84.0929   25.8679  -73.6861 H         1 UNK         0.0793 
    125 H125      -83.4635   26.0219  -72.0558 H         1 UNK         0.0793 
    126 H126      -83.8667   24.4291  -72.7012 H         1 UNK         0.0793 
    127 H127      -81.6184   24.3624  -71.6194 H         1 UNK         0.2896 
@<TRIPOS>BOND
     1    1    2 1    
     2    1   67 1    
     3    1   68 1    
     4    1   69 1    
     5    2    3 2    
     6    2    4 am   BACKBONE|DICT|INTERRES
     7    4    5 1    
     8    4   70 1    
     9    5    6 1    
    10    5   65 1    
    11    5   71 1    
    12    6    7 1    
    13    6   72 1    
    14    6   73 1    
    15    7    8 1    
    16    8    9 1    
    17    8   74 1    
    18    8   75 1    
    19    9   10 ar   
    20    9   14 ar   
    21   10   11 ar   
    22   10   76 1    
    23   11   12 ar   
    24   11   48 1    
    25   12   13 ar   
    26   12   77 1    
    27   13   14 ar   
    28   13   15 1    
    29   14   78 1    
    30   15   16 1    
    31   15   79 1    
    32   15   80 1    
    33   16   17 1    
    34   17   18 1    
    35   17   81 1    
    36   17   82 1    
    37   18   19 1    
    38   18   22 1    
    39   18   83 1    
    40   19   20 am   BACKBONE|DICT|INTERRES
    41   19   21 2    
    42   20   84 1    
    43   20   85 1    
    44   22   23 am   BACKBONE|DICT|INTERRES
    45   22   86 1    
    46   23   24 2    
    47   23   25 1    
    48   25   26 1    
    49   25   27 1    
    50   25   87 1    
    51   26   88 1    
    52   26   89 1    
    53   26   90 1    
    54   27   28 am   BACKBONE|DICT|INTERRES
    55   27   91 1    
    56   28   29 2    
    57   28   30 1    
    58   30   31 1    
    59   30   32 1    
    60   30   92 1    
    61   31   93 1    
    62   31   94 1    
    63   31   95 1    
    64   32   33 am   BACKBONE|DICT|INTERRES
    65   32   96 1    
    66   33   34 2    
    67   33   35 1    
    68   35   36 1    
    69   35   37 1    
    70   35   97 1    
    71   36   98 1    
    72   36   99 1    
    73   36  100 1    
    74   37   38 am   BACKBONE|DICT|INTERRES
    75   37  101 1    
    76   38   39 2    
    77   38   40 1    
    78   40   41 1    
    79   40   42 1    
    80   40  102 1    
    81   41  103 1    
    82   41  104 1    
    83   41  105 1    
    84   42   43 am   BACKBONE|DICT|INTERRES
    85   42  106 1    
    86   43   44 2    
    87   43   45 1    
    88   45   46 1    
    89   45   49 1    
    90   45  107 1    
    91   46   47 1    
    92   46  108 1    
    93   46  109 1    
    94   47   48 1    
    95   48  110 1    
    96   48  111 1    
    97   49   50 am   BACKBONE|DICT|INTERRES
    98   49  112 1    
    99   50   51 2    
   100   50   52 1    
   101   52   53 1    
   102   52   54 1    
   103   52  113 1    
   104   53  114 1    
   105   53  115 1    
   106   53  116 1    
   107   54   55 am   BACKBONE|DICT|INTERRES
   108   54  117 1    
   109   55   56 2    
   110   55   57 1    
   111   57   58 1    
   112   57   59 1    
   113   57  118 1    
   114   58  119 1    
   115   58  120 1    
   116   58  121 1    
   117   59   60 am   BACKBONE|DICT|INTERRES
   118   59  122 1    
   119   60   61 2    
   120   60   62 1    
   121   62   63 1    
   122   62   64 1    
   123   62  123 1    
   124   63  124 1    
   125   63  125 1    
   126   63  126 1    
   127   64   65 am   BACKBONE|DICT|INTERRES
   128   64  127 1    
   129   65   66 2    
@<TRIPOS>SUBSTRUCTURE
     1 UNK         1 GROUP             0       ****    0 ROOT    
