@<TRIPOS>MOLECULE
3R135
127   129    1
SMALL
USER_CHARGES


@<TRIPOS>ATOM
      1 CA        -77.2430   22.4879  -71.7242 C.3       0 UNK        -0.1998 
      2 C         -77.2313   23.3164  -73.0045 C.2       0 UNK         0.4909 
      3 O         -76.3230   23.1530  -73.8139 O.2       0 UNK        -0.5240 
      4 N         -78.2038   24.2067  -73.2374 N.am      1 UNK        -0.4739 
      5 CA        -79.4053   24.4429  -72.4296 C.3       1 UNK         0.0864 
      6 C6        -79.5291   25.9266  -72.0026 C.3       11 UNK        -0.0881 
      7 S7        -78.4106   26.2769  -70.6071 S.3       11 UNK        -0.2682 
      8 C8        -78.8724   27.9864  -70.1810 C.3       11 UNK         0.0289 
      9 C9        -78.2379   28.9918  -71.1295 C.ar      11 UNK        -0.0687 
     10 C10       -79.0255   29.7570  -71.9946 C.ar      11 UNK        -0.0823 
     11 C11       -78.4305   30.6705  -72.8712 C.ar      11 UNK        -0.0830 
     12 C12       -77.0383   30.8049  -72.8883 C.ar      11 UNK        -0.1021 
     13 C13       -76.2434   30.0415  -72.0300 C.ar      11 UNK        -0.0753 
     14 C14       -76.8503   29.1536  -71.1391 C.ar      11 UNK        -0.0933 
     15 C15       -74.7285   30.1200  -72.1095 C.3       11 UNK         0.0166 
     16 S16       -74.0679   31.6478  -71.3853 S.3       11 UNK        -0.2615 
     17 C17       -72.3471   31.1488  -71.0231 C.3       11 UNK        -0.0865 
     18 CA        -71.4080   31.2151  -72.2581 C.3       10 UNK         0.0862 
     19 C         -69.9104   31.2089  -71.8308 C.2       10 UNK         0.5551 
     20 N         -69.1005   30.2409  -72.2440 N.am      10 UNK        -0.7319 
     21 O         -69.4721   32.1092  -71.1189 O.2       10 UNK        -0.5018 
     22 N         -71.7379   30.1743  -73.2477 N.am      10 UNK        -0.4509 
     23 C         -71.6042   30.3031  -74.5709 C.2       10 UNK         0.4899 
     24 O         -71.2366   31.3436  -75.1174 O.2       10 UNK        -0.4839 
     25 CA        -71.9284   29.0843  -75.4566 C.3       9 UNK         0.0222 
     26 CB        -70.6376   28.3516  -75.8701 C.3       9 UNK        -0.1966 
     27 N         -72.9237   28.1321  -74.9401 N.am      9 UNK        -0.4218 
     28 C         -72.8554   27.3017  -73.8888 C.2       9 UNK         0.5020 
     29 O         -71.9615   27.3398  -73.0425 O.2       9 UNK        -0.5274 
     30 CA        -73.9646   26.2383  -73.7679 C.3       8 UNK         0.0270 
     31 CB        -75.1605   26.7567  -72.9597 C.3       8 UNK        -0.1976 
     32 N         -74.4374   25.7677  -75.0706 N.am      8 UNK        -0.4313 
     33 C         -73.7448   24.9559  -75.8812 C.2       8 UNK         0.5041 
     34 O         -72.6456   24.4753  -75.6010 O.2       8 UNK        -0.5577 
     35 CA        -74.3771   24.6427  -77.2464 C.3       7 UNK         0.0284 
     36 CB        -75.3631   23.4730  -77.1339 C.3       7 UNK        -0.1958 
     37 N         -75.0611   25.8049  -77.8154 N.am      7 UNK        -0.4454 
     38 C         -74.4275   26.8496  -78.3665 C.2       7 UNK         0.5089 
     39 O         -73.2073   26.9117  -78.5164 O.2       7 UNK        -0.5125 
     40 CA        -75.2977   28.0366  -78.8145 C.3       6 UNK         0.0408 
     41 CB        -75.7249   27.8651  -80.2807 C.3       6 UNK        -0.1791 
     42 N         -76.4872   28.2454  -77.9839 N.am      6 UNK        -0.4762 
     43 C         -76.4724   28.5774  -76.6838 C.2       6 UNK         0.5007 
     44 O         -75.4421   28.7169  -76.0272 O.2       6 UNK        -0.5032 
     45 CA        -77.8386   28.7622  -75.9977 C.3       5 UNK         0.0783 
     46 C46       -78.2963   30.2363  -76.1235 C.3       11 UNK        -0.0857 
     47 S47       -79.8627   30.5561  -75.2429 S.3       11 UNK        -0.2512 
     48 C48       -79.2935   31.5099  -73.8009 C.3       11 UNK         0.0225 
     49 N         -78.8500   27.8389  -76.5208 N.am      5 UNK        -0.4615 
     50 C         -78.8188   26.5045  -76.4315 C.2       4 UNK         0.5053 
     51 O         -77.9174   25.8726  -75.8721 O.2       4 UNK        -0.5105 
     52 CA        -80.0210   25.7894  -77.0692 C.3       4 UNK         0.0263 
     53 CB        -80.2041   26.1520  -78.5608 C.3       4 UNK        -0.1981 
     54 N         -80.0022   24.3407  -76.8520 N.am      4 UNK        -0.4224 
     55 C         -79.2728   23.3964  -77.4671 C.2       3 UNK         0.4895 
     56 O         -78.5012   23.6227  -78.3997 O.2       3 UNK        -0.5091 
     57 CA        -79.4363   21.9425  -76.9663 C.3       3 UNK         0.0250 
     58 CB        -78.0838   21.2160  -76.8565 C.3       3 UNK        -0.1996 
     59 N         -80.1114   21.8600  -75.6689 N.am      3 UNK        -0.4254 
     60 C         -81.4367   21.8424  -75.4686 C.2       2 UNK         0.5004 
     61 O         -82.2679   21.7727  -76.3733 O.2       2 UNK        -0.5226 
     62 CA        -81.9096   21.9864  -74.0091 C.3       2 UNK         0.0269 
     63 CB        -82.2251   20.6082  -73.4059 C.3       2 UNK        -0.1926 
     64 N         -80.9328   22.6783  -73.1558 N.am      2 UNK        -0.4687 
     65 C         -80.5892   23.9697  -73.2828 C.2       1 UNK         0.5165 
     66 O         -81.1097   24.7349  -74.0954 O.2       1 UNK        -0.5079 
     67 H67       -76.3363   21.8874  -71.6522 H         1 UNK         0.0900 
     68 H68       -78.0934   21.8077  -71.7062 H         1 UNK         0.0900 
     69 H69       -77.2801   23.1318  -70.8456 H         1 UNK         0.0900 
     70 H70       -78.1580   24.7443  -74.0976 H         1 UNK         0.2959 
     71 H71       -79.4167   23.8392  -71.5212 H         1 UNK         0.1079 
     72 H72       -80.5470   26.1555  -71.6804 H         1 UNK         0.0837 
     73 H73       -79.3053   26.6002  -72.8327 H         1 UNK         0.0837 
     74 H74       -78.5341   28.1977  -69.1657 H         1 UNK         0.0685 
     75 H75       -79.9591   28.0832  -70.1682 H         1 UNK         0.0685 
     76 H76       -80.1008   29.6408  -71.9914 H         1 UNK         0.1434 
     77 H77       -76.5674   31.4951  -73.5749 H         1 UNK         0.1329 
     78 H78       -76.2419   28.5555  -70.4745 H         1 UNK         0.1335 
     79 H79       -74.2788   29.2639  -71.6067 H         1 UNK         0.0680 
     80 H80       -74.4310   30.0586  -73.1566 H         1 UNK         0.0680 
     81 H81       -72.3315   30.1535  -70.5755 H         1 UNK         0.1032 
     82 H82       -71.9951   31.8251  -70.2415 H         1 UNK         0.1032 
     83 H83       -71.5654   32.1899  -72.7240 H         1 UNK         0.0461 
     84 H84       -69.4519   29.4965  -72.8244 H         1 UNK         0.3453 
     85 H85       -68.1322   30.2523  -71.9645 H         1 UNK         0.3453 
     86 H86       -71.9530   29.2486  -72.8899 H         1 UNK         0.2984 
     87 H87       -72.3765   29.4868  -76.3666 H         1 UNK         0.0554 
     88 H88       -69.9325   29.0368  -76.3426 H         1 UNK         0.0847 
     89 H89       -70.8486   27.5588  -76.5885 H         1 UNK         0.0847 
     90 H90       -70.1313   27.9029  -75.0152 H         1 UNK         0.0847 
     91 H91       -73.7903   28.1139  -75.4751 H         1 UNK         0.3141 
     92 H92       -73.5448   25.3835  -73.2332 H         1 UNK         0.0743 
     93 H93       -74.8540   27.0366  -71.9523 H         1 UNK         0.0784 
     94 H94       -75.6208   27.6253  -73.4304 H         1 UNK         0.0784 
     95 H95       -75.9308   25.9941  -72.8536 H         1 UNK         0.0784 
     96 H96       -75.3453   26.0907  -75.3753 H         1 UNK         0.3213 
     97 H97       -73.5741   24.3440  -77.9242 H         1 UNK         0.0855 
     98 H98       -76.2193   23.7324  -76.5103 H         1 UNK         0.0814 
     99 H99       -74.8876   22.5990  -76.6868 H         1 UNK         0.0814 
    100 H100      -75.7392   23.1753  -78.1127 H         1 UNK         0.0814 
    101 H101      -76.0673   25.8370  -77.7232 H         1 UNK         0.3105 
    102 H102      -74.6836   28.9369  -78.7420 H         1 UNK         0.0547 
    103 H103      -74.8559   27.7306  -80.9265 H         1 UNK         0.0837 
    104 H104      -76.3683   26.9947  -80.4160 H         1 UNK         0.0837 
    105 H105      -76.2621   28.7412  -80.6440 H         1 UNK         0.0837 
    106 H106      -77.3833   28.1454  -78.4386 H         1 UNK         0.3020 
    107 H107      -77.6973   28.5313  -74.9387 H         1 UNK         0.1245 
    108 H108      -78.4443   30.5029  -77.1719 H         1 UNK         0.0781 
    109 H109      -77.5269   30.9153  -75.7522 H         1 UNK         0.0781 
    110 H110      -80.1640   31.8767  -73.2551 H         1 UNK         0.0836 
    111 H111      -78.7538   32.3961  -74.1388 H         1 UNK         0.0836 
    112 H112      -79.6504   28.2763  -76.9537 H         1 UNK         0.3022 
    113 H113      -80.9041   26.1427  -76.5344 H         1 UNK         0.0747 
    114 H114      -81.0009   25.5637  -79.0163 H         1 UNK         0.0793 
    115 H115      -79.2939   25.9841  -79.1373 H         1 UNK         0.0793 
    116 H116      -80.4746   27.2007  -78.6856 H         1 UNK         0.0793 
    117 H117      -80.5627   24.0480  -76.0617 H         1 UNK         0.3047 
    118 H118      -80.0375   21.4208  -77.7140 H         1 UNK         0.0822 
    119 H119      -78.2198   20.1687  -76.5862 H         1 UNK         0.0807 
    120 H120      -77.4415   21.6731  -76.1033 H         1 UNK         0.0807 
    121 H121      -77.5445   21.2333  -77.8044 H         1 UNK         0.0807 
    122 H122      -79.5163   21.9206  -74.8559 H         1 UNK         0.2946 
    123 H123      -82.8288   22.5771  -74.0226 H         1 UNK         0.1144 
    124 H124      -82.9679   20.0809  -74.0064 H         1 UNK         0.0793 
    125 H125      -82.6322   20.6992  -72.3987 H         1 UNK         0.0793 
    126 H126      -81.3384   19.9749  -73.3553 H         1 UNK         0.0793 
    127 H127      -80.4639   22.1103  -72.4647 H         1 UNK         0.2896 
@<TRIPOS>BOND
     1    1    2 1    
     2    1   67 1    
     3    1   68 1    
     4    1   69 1    
     5    2    3 2    
     6    2    4 am   BACKBONE|DICT|INTERRES
     7    4    5 1    
     8    4   70 1    
     9    5    6 1    
    10    5   65 1    
    11    5   71 1    
    12    6    7 1    
    13    6   72 1    
    14    6   73 1    
    15    7    8 1    
    16    8    9 1    
    17    8   74 1    
    18    8   75 1    
    19    9   10 ar   
    20    9   14 ar   
    21   10   11 ar   
    22   10   76 1    
    23   11   12 ar   
    24   11   48 1    
    25   12   13 ar   
    26   12   77 1    
    27   13   14 ar   
    28   13   15 1    
    29   14   78 1    
    30   15   16 1    
    31   15   79 1    
    32   15   80 1    
    33   16   17 1    
    34   17   18 1    
    35   17   81 1    
    36   17   82 1    
    37   18   19 1    
    38   18   22 1    
    39   18   83 1    
    40   19   20 am   BACKBONE|DICT|INTERRES
    41   19   21 2    
    42   20   84 1    
    43   20   85 1    
    44   22   23 am   BACKBONE|DICT|INTERRES
    45   22   86 1    
    46   23   24 2    
    47   23   25 1    
    48   25   26 1    
    49   25   27 1    
    50   25   87 1    
    51   26   88 1    
    52   26   89 1    
    53   26   90 1    
    54   27   28 am   BACKBONE|DICT|INTERRES
    55   27   91 1    
    56   28   29 2    
    57   28   30 1    
    58   30   31 1    
    59   30   32 1    
    60   30   92 1    
    61   31   93 1    
    62   31   94 1    
    63   31   95 1    
    64   32   33 am   BACKBONE|DICT|INTERRES
    65   32   96 1    
    66   33   34 2    
    67   33   35 1    
    68   35   36 1    
    69   35   37 1    
    70   35   97 1    
    71   36   98 1    
    72   36   99 1    
    73   36  100 1    
    74   37   38 am   BACKBONE|DICT|INTERRES
    75   37  101 1    
    76   38   39 2    
    77   38   40 1    
    78   40   41 1    
    79   40   42 1    
    80   40  102 1    
    81   41  103 1    
    82   41  104 1    
    83   41  105 1    
    84   42   43 am   BACKBONE|DICT|INTERRES
    85   42  106 1    
    86   43   44 2    
    87   43   45 1    
    88   45   46 1    
    89   45   49 1    
    90   45  107 1    
    91   46   47 1    
    92   46  108 1    
    93   46  109 1    
    94   47   48 1    
    95   48  110 1    
    96   48  111 1    
    97   49   50 am   BACKBONE|DICT|INTERRES
    98   49  112 1    
    99   50   51 2    
   100   50   52 1    
   101   52   53 1    
   102   52   54 1    
   103   52  113 1    
   104   53  114 1    
   105   53  115 1    
   106   53  116 1    
   107   54   55 am   BACKBONE|DICT|INTERRES
   108   54  117 1    
   109   55   56 2    
   110   55   57 1    
   111   57   58 1    
   112   57   59 1    
   113   57  118 1    
   114   58  119 1    
   115   58  120 1    
   116   58  121 1    
   117   59   60 am   BACKBONE|DICT|INTERRES
   118   59  122 1    
   119   60   61 2    
   120   60   62 1    
   121   62   63 1    
   122   62   64 1    
   123   62  123 1    
   124   63  124 1    
   125   63  125 1    
   126   63  126 1    
   127   64   65 am   BACKBONE|DICT|INTERRES
   128   64  127 1    
   129   65   66 2    
@<TRIPOS>SUBSTRUCTURE
     1 UNK         1 GROUP             0       ****    0 ROOT    
