@<TRIPOS>MOLECULE
3R135
127   129    1
SMALL
USER_CHARGES


@<TRIPOS>ATOM
      1 CA        -81.7911   32.7323  -75.8436 C.3       0 UNK        -0.1998 
      2 C         -81.4067   31.6947  -74.7996 C.2       0 UNK         0.4909 
      3 O         -81.6949   31.8785  -73.6166 O.2       0 UNK        -0.5240 
      4 N         -80.7577   30.6074  -75.2252 N.am      1 UNK        -0.4739 
      5 CA        -80.2833   29.5188  -74.3747 C.3       1 UNK         0.0864 
      6 C6        -81.4510   28.5768  -73.9395 C.3       11 UNK        -0.0881 
      7 S7        -81.0722   26.8262  -73.5482 S.3       11 UNK        -0.2682 
      8 C8        -80.8864   26.8517  -71.7357 C.3       11 UNK         0.0289 
      9 C9        -79.4525   27.1572  -71.3288 C.ar      11 UNK        -0.0687 
     10 C10       -78.5557   26.1193  -71.0500 C.ar      11 UNK        -0.0823 
     11 C11       -77.2360   26.3982  -70.6638 C.ar      11 UNK        -0.0830 
     12 C12       -76.8203   27.7320  -70.5961 C.ar      11 UNK        -0.1021 
     13 C13       -77.7033   28.7763  -70.8835 C.ar      11 UNK        -0.0753 
     14 C14       -79.0262   28.4816  -71.2177 C.ar      11 UNK        -0.0933 
     15 C15       -77.2365   30.2233  -70.8303 C.3       11 UNK         0.0166 
     16 S16       -76.3428   30.6816  -72.3505 S.3       11 UNK        -0.2615 
     17 C17       -74.6525   30.0919  -71.9810 C.3       11 UNK        -0.0865 
     18 CA        -73.5710   31.1127  -72.4421 C.3       10 UNK         0.0862 
     19 C         -72.1836   30.8944  -71.7578 C.2       10 UNK         0.5551 
     20 N         -71.0737   31.2442  -72.3969 N.am      10 UNK        -0.7319 
     21 O         -72.1081   30.4385  -70.6193 O.2       10 UNK        -0.5018 
     22 N         -73.5263   31.2573  -73.9111 N.am      10 UNK        -0.4509 
     23 C         -73.1072   30.3249  -74.7767 C.2       10 UNK         0.4899 
     24 O         -72.6906   29.2109  -74.4485 O.2       10 UNK        -0.4839 
     25 CA        -73.1507   30.7062  -76.2624 C.3       9 UNK         0.0222 
     26 CB        -72.1543   31.8395  -76.5811 C.3       9 UNK        -0.1966 
     27 N         -72.8278   29.5193  -77.0488 N.am      9 UNK        -0.4218 
     28 C         -73.0752   29.3287  -78.3491 C.2       9 UNK         0.5020 
     29 O         -73.6371   30.1564  -79.0676 O.2       9 UNK        -0.5274 
     30 CA        -72.5974   28.0013  -78.9670 C.3       8 UNK         0.0270 
     31 CB        -71.2598   28.2065  -79.6970 C.3       8 UNK        -0.1976 
     32 N         -72.4458   26.9238  -77.9831 N.am      8 UNK        -0.4313 
     33 C         -73.4617   26.1920  -77.5101 C.2       8 UNK         0.5041 
     34 O         -74.6323   26.3341  -77.8705 O.2       8 UNK        -0.5577 
     35 CA        -73.1035   25.1441  -76.4463 C.3       7 UNK         0.0284 
     36 CB        -73.0070   25.7797  -75.0492 C.3       7 UNK        -0.1958 
     37 N         -74.1208   24.0978  -76.4074 N.am      7 UNK        -0.4454 
     38 C         -74.0276   22.9143  -77.0255 C.2       7 UNK         0.5089 
     39 O         -73.0481   22.5670  -77.6886 O.2       7 UNK        -0.5125 
     40 CA        -75.2292   21.9576  -76.8752 C.3       6 UNK         0.0408 
     41 CB        -74.8522   20.4782  -77.0996 C.3       6 UNK        -0.1791 
     42 N         -75.9515   22.1287  -75.6088 N.am      6 UNK        -0.4762 
     43 C         -75.4771   21.9695  -74.3606 C.2       6 UNK         0.5007 
     44 O         -74.3455   21.5513  -74.1129 O.2       6 UNK        -0.5032 
     45 CA        -76.4058   22.3515  -73.1861 C.3       5 UNK         0.0783 
     46 C46       -75.7359   23.3961  -72.2589 C.3       11 UNK        -0.0857 
     47 S47       -76.6664   23.6013  -70.7053 S.3       11 UNK        -0.2512 
     48 C48       -76.2403   25.3148  -70.2402 C.3       11 UNK         0.0225 
     49 N         -77.6991   22.8381  -73.6712 N.am      5 UNK        -0.4615 
     50 C         -78.8070   22.0990  -73.7974 C.2       4 UNK         0.5053 
     51 O         -78.8908   20.9217  -73.4477 O.2       4 UNK        -0.5105 
     52 CA        -80.0258   22.7825  -74.4443 C.3       4 UNK         0.0263 
     53 CB        -80.9993   23.2636  -73.3589 C.3       4 UNK        -0.1981 
     54 N         -79.6652   23.9038  -75.3231 N.am      4 UNK        -0.4224 
     55 C         -79.0129   23.7601  -76.4871 C.2       3 UNK         0.4895 
     56 O         -78.6809   22.6687  -76.9488 O.2       3 UNK        -0.5091 
     57 CA        -78.6167   25.0355  -77.2468 C.3       3 UNK         0.0250 
     58 CB        -79.7519   25.4761  -78.1839 C.3       3 UNK        -0.1996 
     59 N         -78.2353   26.1610  -76.3923 N.am      3 UNK        -0.4254 
     60 C         -77.2477   26.1827  -75.4886 C.2       2 UNK         0.5004 
     61 O         -76.5718   25.1962  -75.1933 O.2       2 UNK        -0.5226 
     62 CA        -76.9827   27.5184  -74.7689 C.3       2 UNK         0.0269 
     63 CB        -76.0582   28.4273  -75.5990 C.3       2 UNK        -0.1926 
     64 N         -78.1936   28.2431  -74.3600 N.am      2 UNK        -0.4687 
     65 C         -79.1255   28.8357  -75.1209 C.2       1 UNK         0.5165 
     66 O         -79.1112   28.8433  -76.3558 O.2       1 UNK        -0.5079 
     67 H67       -81.4763   32.4386  -76.8449 H         1 UNK         0.0900 
     68 H68       -82.8719   32.8703  -75.8550 H         1 UNK         0.0900 
     69 H69       -81.3273   33.6902  -75.6094 H         1 UNK         0.0900 
     70 H70       -80.4999   30.4998  -76.1996 H         1 UNK         0.2959 
     71 H71       -79.8450   29.9774  -73.4880 H         1 UNK         0.1079 
     72 H72       -81.9867   29.0268  -73.1028 H         1 UNK         0.0837 
     73 H73       -82.1851   28.5309  -74.7458 H         1 UNK         0.0837 
     74 H74       -81.5721   27.5756  -71.2931 H         1 UNK         0.0685 
     75 H75       -81.1850   25.8804  -71.3391 H         1 UNK         0.0685 
     76 H76       -78.9032   25.0981  -71.1101 H         1 UNK         0.1434 
     77 H77       -75.8054   27.9592  -70.3015 H         1 UNK         0.1329 
     78 H78       -79.7264   29.2848  -71.3970 H         1 UNK         0.1335 
     79 H79       -76.6150   30.3926  -69.9499 H         1 UNK         0.0680 
     80 H80       -78.0939   30.8895  -70.7224 H         1 UNK         0.0680 
     81 H81       -74.5005   29.1180  -72.4484 H         1 UNK         0.1032 
     82 H82       -74.5772   29.9219  -70.9066 H         1 UNK         0.1032 
     83 H83       -73.8812   32.0903  -72.0710 H         1 UNK         0.0461 
     84 H84       -71.1205   31.6295  -73.3259 H         1 UNK         0.3453 
     85 H85       -70.1817   31.1125  -71.9469 H         1 UNK         0.3453 
     86 H86       -73.8451   32.1463  -74.2681 H         1 UNK         0.2984 
     87 H87       -74.1667   31.0256  -76.5025 H         1 UNK         0.0554 
     88 H88       -71.1296   31.5518  -76.3431 H         1 UNK         0.0847 
     89 H89       -72.3813   32.7426  -76.0140 H         1 UNK         0.0847 
     90 H90       -72.1851   32.1134  -77.6357 H         1 UNK         0.0847 
     91 H91       -72.4144   28.7733  -76.5032 H         1 UNK         0.3141 
     92 H92       -73.3418   27.6984  -79.7065 H         1 UNK         0.0743 
     93 H93       -70.4674   28.5121  -79.0131 H         1 UNK         0.0784 
     94 H94       -70.9381   27.2945  -80.2001 H         1 UNK         0.0784 
     95 H95       -71.3470   28.9814  -80.4599 H         1 UNK         0.0784 
     96 H96       -71.5101   26.7405  -77.6487 H         1 UNK         0.3213 
     97 H97       -72.1320   24.7122  -76.6962 H         1 UNK         0.0855 
     98 H98       -73.9550   26.2119  -74.7298 H         1 UNK         0.0814 
     99 H99       -72.2585   26.5722  -75.0242 H         1 UNK         0.0814 
    100 H100      -72.7165   25.0404  -74.3024 H         1 UNK         0.0814 
    101 H101      -74.9988   24.3487  -75.9590 H         1 UNK         0.3105 
    102 H102      -75.9329   22.2388  -77.6597 H         1 UNK         0.0547 
    103 H103      -74.4517   20.3246  -78.1023 H         1 UNK         0.0837 
    104 H104      -74.0934   20.1410  -76.3932 H         1 UNK         0.0837 
    105 H105      -75.7206   19.8278  -76.9968 H         1 UNK         0.0837 
    106 H106      -76.9031   22.4610  -75.7081 H         1 UNK         0.3020 
    107 H107      -76.5506   21.4337  -72.6113 H         1 UNK         0.1245 
    108 H108      -75.6461   24.3590  -72.7656 H         1 UNK         0.0781 
    109 H109      -74.7220   23.0936  -71.9901 H         1 UNK         0.0781 
    110 H110      -75.2466   25.5522  -70.6235 H         1 UNK         0.0836 
    111 H111      -76.1586   25.3497  -69.1532 H         1 UNK         0.0836 
    112 H112      -77.6976   23.7896  -74.0178 H         1 UNK         0.3022 
    113 H113      -80.5382   22.0333  -75.0519 H         1 UNK         0.0747 
    114 H114      -81.8773   23.7438  -73.7911 H         1 UNK         0.0793 
    115 H115      -81.3524   22.4267  -72.7548 H         1 UNK         0.0793 
    116 H116      -80.5225   23.9714  -72.6817 H         1 UNK         0.0793 
    117 H117      -79.9028   24.8346  -75.0074 H         1 UNK         0.3047 
    118 H118      -77.7440   24.7909  -77.8564 H         1 UNK         0.0822 
    119 H119      -79.4462   26.3155  -78.8089 H         1 UNK         0.0807 
    120 H120      -80.6396   25.7794  -77.6270 H         1 UNK         0.0807 
    121 H121      -80.0452   24.6654  -78.8525 H         1 UNK         0.0807 
    122 H122      -78.7090   27.0451  -76.5601 H         1 UNK         0.2946 
    123 H123      -76.4604   27.2753  -73.8415 H         1 UNK         0.1144 
    124 H124      -75.0729   27.9802  -75.7143 H         1 UNK         0.0793 
    125 H125      -75.9199   29.3946  -75.1181 H         1 UNK         0.0793 
    126 H126      -76.4478   28.6051  -76.6019 H         1 UNK         0.0793 
    127 H127      -78.3402   28.2570  -73.3582 H         1 UNK         0.2896 
@<TRIPOS>BOND
     1    1    2 1    
     2    1   67 1    
     3    1   68 1    
     4    1   69 1    
     5    2    3 2    
     6    2    4 am   BACKBONE|DICT|INTERRES
     7    4    5 1    
     8    4   70 1    
     9    5    6 1    
    10    5   65 1    
    11    5   71 1    
    12    6    7 1    
    13    6   72 1    
    14    6   73 1    
    15    7    8 1    
    16    8    9 1    
    17    8   74 1    
    18    8   75 1    
    19    9   10 ar   
    20    9   14 ar   
    21   10   11 ar   
    22   10   76 1    
    23   11   12 ar   
    24   11   48 1    
    25   12   13 ar   
    26   12   77 1    
    27   13   14 ar   
    28   13   15 1    
    29   14   78 1    
    30   15   16 1    
    31   15   79 1    
    32   15   80 1    
    33   16   17 1    
    34   17   18 1    
    35   17   81 1    
    36   17   82 1    
    37   18   19 1    
    38   18   22 1    
    39   18   83 1    
    40   19   20 am   BACKBONE|DICT|INTERRES
    41   19   21 2    
    42   20   84 1    
    43   20   85 1    
    44   22   23 am   BACKBONE|DICT|INTERRES
    45   22   86 1    
    46   23   24 2    
    47   23   25 1    
    48   25   26 1    
    49   25   27 1    
    50   25   87 1    
    51   26   88 1    
    52   26   89 1    
    53   26   90 1    
    54   27   28 am   BACKBONE|DICT|INTERRES
    55   27   91 1    
    56   28   29 2    
    57   28   30 1    
    58   30   31 1    
    59   30   32 1    
    60   30   92 1    
    61   31   93 1    
    62   31   94 1    
    63   31   95 1    
    64   32   33 am   BACKBONE|DICT|INTERRES
    65   32   96 1    
    66   33   34 2    
    67   33   35 1    
    68   35   36 1    
    69   35   37 1    
    70   35   97 1    
    71   36   98 1    
    72   36   99 1    
    73   36  100 1    
    74   37   38 am   BACKBONE|DICT|INTERRES
    75   37  101 1    
    76   38   39 2    
    77   38   40 1    
    78   40   41 1    
    79   40   42 1    
    80   40  102 1    
    81   41  103 1    
    82   41  104 1    
    83   41  105 1    
    84   42   43 am   BACKBONE|DICT|INTERRES
    85   42  106 1    
    86   43   44 2    
    87   43   45 1    
    88   45   46 1    
    89   45   49 1    
    90   45  107 1    
    91   46   47 1    
    92   46  108 1    
    93   46  109 1    
    94   47   48 1    
    95   48  110 1    
    96   48  111 1    
    97   49   50 am   BACKBONE|DICT|INTERRES
    98   49  112 1    
    99   50   51 2    
   100   50   52 1    
   101   52   53 1    
   102   52   54 1    
   103   52  113 1    
   104   53  114 1    
   105   53  115 1    
   106   53  116 1    
   107   54   55 am   BACKBONE|DICT|INTERRES
   108   54  117 1    
   109   55   56 2    
   110   55   57 1    
   111   57   58 1    
   112   57   59 1    
   113   57  118 1    
   114   58  119 1    
   115   58  120 1    
   116   58  121 1    
   117   59   60 am   BACKBONE|DICT|INTERRES
   118   59  122 1    
   119   60   61 2    
   120   60   62 1    
   121   62   63 1    
   122   62   64 1    
   123   62  123 1    
   124   63  124 1    
   125   63  125 1    
   126   63  126 1    
   127   64   65 am   BACKBONE|DICT|INTERRES
   128   64  127 1    
   129   65   66 2    
@<TRIPOS>SUBSTRUCTURE
     1 UNK         1 GROUP             0       ****    0 ROOT    
