@<TRIPOS>MOLECULE
3R135
127   129    1
SMALL
USER_CHARGES


@<TRIPOS>ATOM
      1 CA        -84.5270   24.4823  -70.6931 C.3       0 UNK        -0.1998 
      2 C         -83.1926   24.6535  -71.4036 C.2       0 UNK         0.4909 
      3 O         -82.4881   23.6677  -71.6188 O.2       0 UNK        -0.5240 
      4 N         -82.8541   25.8968  -71.7762 N.am      1 UNK        -0.4739 
      5 CA        -81.6079   26.3107  -72.4465 C.3       1 UNK         0.0864 
      6 C6        -80.3269   26.0335  -71.6043 C.3       11 UNK        -0.0881 
      7 S7        -80.3315   26.9638  -70.0293 S.3       11 UNK        -0.2682 
      8 C8        -78.5657   27.4058  -69.8168 C.3       11 UNK         0.0289 
      9 C9        -77.9576   28.3373  -70.8710 C.ar      11 UNK        -0.0687 
     10 C10       -78.7279   28.9934  -71.8380 C.ar      11 UNK        -0.0823 
     11 C11       -78.1249   29.7615  -72.8358 C.ar      11 UNK        -0.0830 
     12 C12       -76.7394   29.9359  -72.8315 C.ar      11 UNK        -0.1021 
     13 C13       -75.9554   29.3139  -71.8564 C.ar      11 UNK        -0.0753 
     14 C14       -76.5698   28.5173  -70.8833 C.ar      11 UNK        -0.0933 
     15 C15       -74.4411   29.4458  -71.8958 C.3       11 UNK         0.0166 
     16 S16       -73.8805   31.1483  -71.5833 S.3       11 UNK        -0.2615 
     17 C17       -72.0813   30.8850  -71.4085 C.3       11 UNK        -0.0865 
     18 CA        -71.2685   31.1547  -72.7037 C.3       10 UNK         0.0862 
     19 C         -69.7445   31.0226  -72.4055 C.2       10 UNK         0.5551 
     20 N         -69.0714   29.9610  -72.8370 N.am      10 UNK        -0.7319 
     21 O         -69.1680   31.9003  -71.7680 O.2       10 UNK        -0.5018 
     22 N         -71.7318   30.3232  -73.8256 N.am      10 UNK        -0.4509 
     23 C         -71.3604   30.4687  -75.1041 C.2       10 UNK         0.4899 
     24 O         -70.7120   31.4319  -75.5161 O.2       10 UNK        -0.4839 
     25 CA        -71.7733   29.3532  -76.0903 C.3       9 UNK         0.0222 
     26 CB        -70.6838   29.0844  -77.1491 C.3       9 UNK        -0.1966 
     27 N         -72.1915   28.0877  -75.4642 N.am      9 UNK        -0.4218 
     28 C         -71.4732   27.3049  -74.6412 C.2       9 UNK         0.5020 
     29 O         -70.3437   27.5877  -74.2372 O.2       9 UNK        -0.5274 
     30 CA        -72.1337   26.0045  -74.1574 C.3       8 UNK         0.0270 
     31 CB        -73.0463   26.2666  -72.9491 C.3       8 UNK        -0.1976 
     32 N         -72.8958   25.3288  -75.2082 N.am      8 UNK        -0.4313 
     33 C         -72.3409   24.6064  -76.1915 C.2       8 UNK         0.5041 
     34 O         -71.1282   24.4259  -76.3115 O.2       8 UNK        -0.5577 
     35 CA        -73.2995   23.9721  -77.2126 C.3       7 UNK         0.0284 
     36 CB        -73.9929   22.7354  -76.6187 C.3       7 UNK        -0.1958 
     37 N         -74.3021   24.9205  -77.6995 N.am      7 UNK        -0.4454 
     38 C         -74.0275   25.9611  -78.4987 C.2       7 UNK         0.5089 
     39 O         -72.9073   26.2123  -78.9432 O.2       7 UNK        -0.5125 
     40 CA        -75.2012   26.8817  -78.8662 C.3       6 UNK         0.0408 
     41 CB        -75.9060   26.3778  -80.1354 C.3       6 UNK        -0.1791 
     42 N         -76.1792   27.0127  -77.7857 N.am      6 UNK        -0.4762 
     43 C         -75.9685   27.6927  -76.6493 C.2       6 UNK         0.5007 
     44 O         -74.9150   28.2658  -76.3743 O.2       6 UNK        -0.5032 
     45 CA        -77.1309   27.7088  -75.6381 C.3       5 UNK         0.0783 
     46 C46       -78.1994   28.7205  -76.1393 C.3       11 UNK        -0.0857 
     47 S47       -79.6079   29.0155  -75.0240 S.3       11 UNK        -0.2512 
     48 C48       -78.9825   30.3445  -73.9451 C.3       11 UNK         0.0225 
     49 N         -77.6473   26.3571  -75.3693 N.am      5 UNK        -0.4615 
     50 C         -76.8912   25.3127  -74.9846 C.2       4 UNK         0.5053 
     51 O         -75.6884   25.3939  -74.7356 O.2       4 UNK        -0.5105 
     52 CA        -77.5438   23.9207  -74.9353 C.3       4 UNK         0.0263 
     53 CB        -78.0317   23.5796  -73.5205 C.3       4 UNK        -0.1981 
     54 N         -78.6294   23.7418  -75.8988 N.am      4 UNK        -0.4224 
     55 C         -78.5104   23.8141  -77.2309 C.2       3 UNK         0.4895 
     56 O         -77.4401   24.0246  -77.8047 O.2       3 UNK        -0.5091 
     57 CA        -79.7954   23.6692  -78.0711 C.3       3 UNK         0.0250 
     58 CB        -80.0497   22.1969  -78.4485 C.3       3 UNK        -0.1996 
     59 N         -80.9876   24.3002  -77.4774 N.am      3 UNK        -0.4254 
     60 C         -81.6558   23.9570  -76.3655 C.2       2 UNK         0.5004 
     61 O         -81.4067   22.9595  -75.6852 O.2       2 UNK        -0.5226 
     62 CA        -82.7526   24.9331  -75.9020 C.3       2 UNK         0.0269 
     63 CB        -84.1453   24.3145  -76.1048 C.3       2 UNK        -0.1926 
     64 N         -82.6095   25.3479  -74.4993 N.am      2 UNK        -0.4687 
     65 C         -81.4955   25.8173  -73.9112 C.2       1 UNK         0.5165 
     66 O         -80.4194   25.9207  -74.4999 O.2       1 UNK        -0.5079 
     67 H67       -85.0534   25.4297  -70.5773 H         1 UNK         0.0900 
     68 H68       -84.3708   24.0588  -69.7012 H         1 UNK         0.0900 
     69 H69       -85.1681   23.8044  -71.2560 H         1 UNK         0.0900 
     70 H70       -83.4898   26.6543  -71.5658 H         1 UNK         0.2959 
     71 H71       -81.6859   27.3940  -72.5510 H         1 UNK         0.1079 
     72 H72       -79.4316   26.3079  -72.1643 H         1 UNK         0.0837 
     73 H73       -80.2237   24.9709  -71.3825 H         1 UNK         0.0837 
     74 H74       -78.4510   27.8756  -68.8391 H         1 UNK         0.0685 
     75 H75       -77.9885   26.4803  -69.7832 H         1 UNK         0.0685 
     76 H76       -79.8010   28.8773  -71.8585 H         1 UNK         0.1434 
     77 H77       -76.2645   30.5267  -73.6032 H         1 UNK         0.1329 
     78 H78       -75.9627   28.0152  -70.1421 H         1 UNK         0.1335 
     79 H79       -74.0912   29.1348  -72.8796 H         1 UNK         0.0680 
     80 H80       -73.9831   28.7731  -71.1691 H         1 UNK         0.0680 
     81 H81       -71.7419   31.5524  -70.6135 H         1 UNK         0.1032 
     82 H82       -71.8911   29.8750  -71.0403 H         1 UNK         0.1032 
     83 H83       -71.4377   32.1948  -72.9892 H         1 UNK         0.0461 
     84 H84       -68.0864   29.8878  -72.6387 H         1 UNK         0.3453 
     85 H85       -69.5382   29.2224  -73.3533 H         1 UNK         0.3453 
     86 H86       -72.2574   29.5002  -73.5811 H         1 UNK         0.2984 
     87 H87       -72.6512   29.7327  -76.6143 H         1 UNK         0.0554 
     88 H88       -71.0014   28.3179  -77.8566 H         1 UNK         0.0847 
     89 H89       -69.7506   28.7532  -76.6923 H         1 UNK         0.0847 
     90 H90       -70.4631   29.9829  -77.7264 H         1 UNK         0.0847 
     91 H91       -73.1375   27.8031  -75.7053 H         1 UNK         0.3141 
     92 H92       -71.3337   25.3373  -73.8287 H         1 UNK         0.0743 
     93 H93       -73.9291   26.8417  -73.2277 H         1 UNK         0.0784 
     94 H94       -73.3924   25.3307  -72.5100 H         1 UNK         0.0784 
     95 H95       -72.5200   26.8158  -72.1672 H         1 UNK         0.0784 
     96 H96       -73.9122   25.3938  -75.1531 H         1 UNK         0.3213 
     97 H97       -72.7068   23.6451  -78.0700 H         1 UNK         0.0855 
     98 H98       -73.2609   21.9672  -76.3663 H         1 UNK         0.0814 
     99 H99       -74.6979   22.2940  -77.3237 H         1 UNK         0.0814 
    100 H100      -74.5346   22.9750  -75.7044 H         1 UNK         0.0814 
    101 H101      -75.2618   24.7769  -77.4109 H         1 UNK         0.3105 
    102 H102      -74.7923   27.8727  -79.0759 H         1 UNK         0.0547 
    103 H103      -75.2023   26.2964  -80.9650 H         1 UNK         0.0837 
    104 H104      -76.3504   25.3925  -79.9883 H         1 UNK         0.0837 
    105 H105      -76.6964   27.0598  -80.4488 H         1 UNK         0.0837 
    106 H106      -77.0510   26.5133  -77.8973 H         1 UNK         0.3020 
    107 H107      -76.7183   28.0675  -74.6965 H         1 UNK         0.1245 
    108 H108      -78.6188   28.3801  -77.0880 H         1 UNK         0.0781 
    109 H109      -77.7386   29.6873  -76.3535 H         1 UNK         0.0781 
    110 H110      -79.8300   30.8711  -73.5041 H         1 UNK         0.0836 
    111 H111      -78.4331   31.0835  -74.5302 H         1 UNK         0.0836 
    112 H112      -78.6528   26.2281  -75.4315 H         1 UNK         0.3022 
    113 H113      -76.7707   23.1973  -75.1967 H         1 UNK         0.0747 
    114 H114      -77.2428   23.7366  -72.7835 H         1 UNK         0.0793 
    115 H115      -78.8798   24.1947  -73.2298 H         1 UNK         0.0793 
    116 H116      -78.3394   22.5362  -73.4501 H         1 UNK         0.0793 
    117 H117      -79.5567   23.5641  -75.5237 H         1 UNK         0.3047 
    118 H118      -79.6124   24.2126  -78.9997 H         1 UNK         0.0822 
    119 H119      -80.2023   21.5679  -77.5711 H         1 UNK         0.0807 
    120 H120      -79.1994   21.7855  -78.9941 H         1 UNK         0.0807 
    121 H121      -80.9252   22.0971  -79.0899 H         1 UNK         0.0807 
    122 H122      -81.2721   25.1542  -77.9376 H         1 UNK         0.2946 
    123 H123      -82.6895   25.8406  -76.5061 H         1 UNK         0.1144 
    124 H124      -84.2917   24.0115  -77.1425 H         1 UNK         0.0793 
    125 H125      -84.2848   23.4284  -75.4838 H         1 UNK         0.0793 
    126 H126      -84.9365   25.0240  -75.8615 H         1 UNK         0.0793 
    127 H127      -83.4368   25.2808  -73.9255 H         1 UNK         0.2896 
@<TRIPOS>BOND
     1    1    2 1    
     2    1   67 1    
     3    1   68 1    
     4    1   69 1    
     5    2    3 2    
     6    2    4 am   BACKBONE|DICT|INTERRES
     7    4    5 1    
     8    4   70 1    
     9    5    6 1    
    10    5   65 1    
    11    5   71 1    
    12    6    7 1    
    13    6   72 1    
    14    6   73 1    
    15    7    8 1    
    16    8    9 1    
    17    8   74 1    
    18    8   75 1    
    19    9   10 ar   
    20    9   14 ar   
    21   10   11 ar   
    22   10   76 1    
    23   11   12 ar   
    24   11   48 1    
    25   12   13 ar   
    26   12   77 1    
    27   13   14 ar   
    28   13   15 1    
    29   14   78 1    
    30   15   16 1    
    31   15   79 1    
    32   15   80 1    
    33   16   17 1    
    34   17   18 1    
    35   17   81 1    
    36   17   82 1    
    37   18   19 1    
    38   18   22 1    
    39   18   83 1    
    40   19   20 am   BACKBONE|DICT|INTERRES
    41   19   21 2    
    42   20   84 1    
    43   20   85 1    
    44   22   23 am   BACKBONE|DICT|INTERRES
    45   22   86 1    
    46   23   24 2    
    47   23   25 1    
    48   25   26 1    
    49   25   27 1    
    50   25   87 1    
    51   26   88 1    
    52   26   89 1    
    53   26   90 1    
    54   27   28 am   BACKBONE|DICT|INTERRES
    55   27   91 1    
    56   28   29 2    
    57   28   30 1    
    58   30   31 1    
    59   30   32 1    
    60   30   92 1    
    61   31   93 1    
    62   31   94 1    
    63   31   95 1    
    64   32   33 am   BACKBONE|DICT|INTERRES
    65   32   96 1    
    66   33   34 2    
    67   33   35 1    
    68   35   36 1    
    69   35   37 1    
    70   35   97 1    
    71   36   98 1    
    72   36   99 1    
    73   36  100 1    
    74   37   38 am   BACKBONE|DICT|INTERRES
    75   37  101 1    
    76   38   39 2    
    77   38   40 1    
    78   40   41 1    
    79   40   42 1    
    80   40  102 1    
    81   41  103 1    
    82   41  104 1    
    83   41  105 1    
    84   42   43 am   BACKBONE|DICT|INTERRES
    85   42  106 1    
    86   43   44 2    
    87   43   45 1    
    88   45   46 1    
    89   45   49 1    
    90   45  107 1    
    91   46   47 1    
    92   46  108 1    
    93   46  109 1    
    94   47   48 1    
    95   48  110 1    
    96   48  111 1    
    97   49   50 am   BACKBONE|DICT|INTERRES
    98   49  112 1    
    99   50   51 2    
   100   50   52 1    
   101   52   53 1    
   102   52   54 1    
   103   52  113 1    
   104   53  114 1    
   105   53  115 1    
   106   53  116 1    
   107   54   55 am   BACKBONE|DICT|INTERRES
   108   54  117 1    
   109   55   56 2    
   110   55   57 1    
   111   57   58 1    
   112   57   59 1    
   113   57  118 1    
   114   58  119 1    
   115   58  120 1    
   116   58  121 1    
   117   59   60 am   BACKBONE|DICT|INTERRES
   118   59  122 1    
   119   60   61 2    
   120   60   62 1    
   121   62   63 1    
   122   62   64 1    
   123   62  123 1    
   124   63  124 1    
   125   63  125 1    
   126   63  126 1    
   127   64   65 am   BACKBONE|DICT|INTERRES
   128   64  127 1    
   129   65   66 2    
@<TRIPOS>SUBSTRUCTURE
     1 UNK         1 GROUP             0       ****    0 ROOT    
