@<TRIPOS>MOLECULE
3R135
127   129    1
SMALL
USER_CHARGES


@<TRIPOS>ATOM
      1 CA        -75.8159   22.8781  -73.5869 C.3       0 UNK        -0.1998 
      2 C         -77.2385   22.9942  -73.0667 C.2       0 UNK         0.4909 
      3 O         -77.9399   21.9874  -72.9730 O.2       0 UNK        -0.5240 
      4 N         -77.6561   24.2215  -72.7319 N.am      1 UNK        -0.4739 
      5 CA        -78.9608   24.6143  -72.1824 C.3       1 UNK         0.0864 
      6 C6        -79.0089   26.1418  -71.9154 C.3       11 UNK        -0.0881 
      7 S7        -77.7530   26.6563  -70.6945 S.3       11 UNK        -0.2682 
      8 C8        -78.4160   28.2516  -70.1246 C.3       11 UNK         0.0289 
      9 C9        -78.0770   29.3875  -71.0800 C.ar      11 UNK        -0.0687 
     10 C10       -78.9728   29.7555  -72.0879 C.ar      11 UNK        -0.0823 
     11 C11       -78.6828   30.8289  -72.9351 C.ar      11 UNK        -0.0830 
     12 C12       -77.4851   31.5293  -72.7703 C.ar      11 UNK        -0.1021 
     13 C13       -76.5813   31.1858  -71.7605 C.ar      11 UNK        -0.0753 
     14 C14       -76.8847   30.1029  -70.9222 C.ar      11 UNK        -0.0933 
     15 C15       -75.3260   32.0508  -71.6105 C.3       11 UNK         0.0166 
     16 S16       -74.1954   31.6325  -70.2366 S.3       11 UNK        -0.2615 
     17 C17       -73.2946   30.2230  -70.9589 C.3       11 UNK        -0.0865 
     18 CA        -72.1236   30.6695  -71.8813 C.3       10 UNK         0.0862 
     19 C         -70.7732   30.8114  -71.1192 C.2       10 UNK         0.5551 
     20 N         -69.7091   30.1278  -71.5236 N.am      10 UNK        -0.7319 
     21 O         -70.6823   31.5645  -70.1533 O.2       10 UNK        -0.5018 
     22 N         -72.0586   29.7987  -73.0609 N.am      10 UNK        -0.4509 
     23 C         -71.7826   30.1707  -74.3136 C.2       10 UNK         0.4899 
     24 O         -71.4967   31.3229  -74.6393 O.2       10 UNK        -0.4839 
     25 CA        -71.8658   29.0827  -75.4031 C.3       9 UNK         0.0222 
     26 CB        -70.4852   28.4513  -75.6658 C.3       9 UNK        -0.1966 
     27 N         -72.8937   28.0538  -75.1726 N.am      9 UNK        -0.4218 
     28 C         -72.9561   27.1166  -74.2131 C.2       9 UNK         0.5020 
     29 O         -72.1196   26.9853  -73.3188 O.2       9 UNK        -0.5274 
     30 CA        -74.1867   26.1970  -74.2263 C.3       8 UNK         0.0270 
     31 CB        -75.3783   26.9048  -73.5577 C.3       8 UNK        -0.1976 
     32 N         -74.5553   25.7594  -75.5753 N.am      8 UNK        -0.4313 
     33 C         -73.7881   24.9956  -76.3691 C.2       8 UNK         0.5041 
     34 O         -72.7065   24.5160  -76.0282 O.2       8 UNK        -0.5577 
     35 CA        -74.3122   24.7261  -77.7875 C.3       7 UNK         0.0284 
     36 CB        -75.2218   23.4876  -77.8022 C.3       7 UNK        -0.1958 
     37 N         -75.0339   25.8842  -78.3192 N.am      7 UNK        -0.4454 
     38 C         -74.4339   26.9629  -78.8445 C.2       7 UNK         0.5089 
     39 O         -73.2198   27.0506  -79.0278 O.2       7 UNK        -0.5125 
     40 CA        -75.3333   28.1580  -79.2104 C.3       6 UNK         0.0408 
     41 CB        -75.8320   28.0315  -80.6585 C.3       6 UNK        -0.1791 
     42 N         -76.4804   28.3159  -78.3128 N.am      6 UNK        -0.4762 
     43 C         -76.4007   28.6337  -77.0114 C.2       6 UNK         0.5007 
     44 O         -75.3414   28.8763  -76.4338 O.2       6 UNK        -0.5032 
     45 CA        -77.7204   28.6198  -76.2122 C.3       5 UNK         0.0783 
     46 C46       -78.3575   30.0306  -76.1745 C.3       11 UNK        -0.0857 
     47 S47       -79.9563   30.0389  -75.2884 S.3       11 UNK        -0.2512 
     48 C48       -79.6894   31.2789  -73.9852 C.3       11 UNK         0.0225 
     49 N         -78.6648   27.6126  -76.7096 N.am      5 UNK        -0.4615 
     50 C         -78.4696   26.2902  -76.7313 C.2       4 UNK         0.5053 
     51 O         -77.4158   25.7463  -76.3912 O.2       4 UNK        -0.5105 
     52 CA        -79.6608   25.4749  -77.2472 C.3       4 UNK         0.0263 
     53 CB        -79.8373   25.6108  -78.7747 C.3       4 UNK        -0.1981 
     54 N         -79.6299   24.0876  -76.7751 N.am      4 UNK        -0.4224 
     55 C         -79.0912   22.9889  -77.3269 C.2       3 UNK         0.4895 
     56 O         -78.5219   22.9673  -78.4182 O.2       3 UNK        -0.5091 
     57 CA        -79.2130   21.6649  -76.5379 C.3       3 UNK         0.0250 
     58 CB        -77.8337   21.0150  -76.3342 C.3       3 UNK        -0.1996 
     59 N         -79.8754   21.8100  -75.2355 N.am      3 UNK        -0.4254 
     60 C         -81.1995   21.9361  -75.0554 C.2       2 UNK         0.5004 
     61 O         -82.0239   21.8226  -75.9625 O.2       2 UNK        -0.5226 
     62 CA        -81.6900   22.3003  -73.6397 C.3       2 UNK         0.0269 
     63 CB        -82.1824   21.0452  -72.9018 C.3       2 UNK        -0.1926 
     64 N         -80.6788   22.9765  -72.8178 N.am      2 UNK        -0.4687 
     65 C         -80.1250   24.1669  -73.0920 C.2       1 UNK         0.5165 
     66 O         -80.4619   24.8665  -74.0485 O.2       1 UNK        -0.5079 
     67 H67       -75.5346   21.8327  -73.7122 H         1 UNK         0.0900 
     68 H68       -75.1128   23.3333  -72.8905 H         1 UNK         0.0900 
     69 H69       -75.7252   23.3719  -74.5531 H         1 UNK         0.0900 
     70 H70       -77.0086   24.9886  -72.8313 H         1 UNK         0.2959 
     71 H71       -79.0763   24.1041  -71.2237 H         1 UNK         0.1079 
     72 H72       -79.9944   26.4281  -71.5430 H         1 UNK         0.0837 
     73 H73       -78.8517   26.7061  -72.8373 H         1 UNK         0.0837 
     74 H74       -77.9972   28.4672  -69.1405 H         1 UNK         0.0685 
     75 H75       -79.4949   28.1794  -69.9795 H         1 UNK         0.0685 
     76 H76       -79.9041   29.2181  -72.2044 H         1 UNK         0.1434 
     77 H77       -77.2658   32.3701  -73.4147 H         1 UNK         0.1329 
     78 H78       -76.2112   29.8166  -70.1278 H         1 UNK         0.1335 
     79 H79       -74.7681   32.0337  -72.5480 H         1 UNK         0.0680 
     80 H80       -75.6435   33.0844  -71.4653 H         1 UNK         0.0680 
     81 H81       -74.0194   29.6234  -71.5128 H         1 UNK         0.1032 
     82 H82       -72.9449   29.5726  -70.1547 H         1 UNK         0.1032 
     83 H83       -72.3450   31.6739  -72.2465 H         1 UNK         0.0461 
     84 H84       -69.7733   29.5109  -72.3174 H         1 UNK         0.3453 
     85 H85       -68.8368   30.2295  -71.0291 H         1 UNK         0.3453 
     86 H86       -72.1870   28.8037  -72.8972 H         1 UNK         0.2984 
     87 H87       -72.1724   29.5893  -76.3197 H         1 UNK         0.0554 
     88 H88       -69.7550   29.2137  -75.9402 H         1 UNK         0.0847 
     89 H89       -70.5293   27.7345  -76.4860 H         1 UNK         0.0847 
     90 H90       -70.0972   27.9329  -74.7888 H         1 UNK         0.0847 
     91 H91       -73.7096   28.1412  -75.7749 H         1 UNK         0.3141 
     92 H92       -73.9438   25.3038  -73.6484 H         1 UNK         0.0743 
     93 H93       -75.2306   26.9682  -72.4789 H         1 UNK         0.0784 
     94 H94       -75.5027   27.9266  -73.9167 H         1 UNK         0.0784 
     95 H95       -76.3160   26.3816  -73.7341 H         1 UNK         0.0784 
     96 H96       -75.4698   26.0333  -75.9197 H         1 UNK         0.3213 
     97 H97       -73.4528   24.5198  -78.4296 H         1 UNK         0.0855 
     98 H98       -76.0846   23.6100  -77.1484 H         1 UNK         0.0814 
     99 H99       -74.6814   22.6034  -77.4620 H         1 UNK         0.0814 
    100 H100      -75.5920   23.2760  -78.8055 H         1 UNK         0.0814 
    101 H101      -76.0333   25.9054  -78.1639 H         1 UNK         0.3105 
    102 H102      -74.7256   29.0625  -79.1374 H         1 UNK         0.0547 
    103 H103      -74.9949   27.9362  -81.3515 H         1 UNK         0.0837 
    104 H104      -76.4674   27.1553  -80.7939 H         1 UNK         0.0837 
    105 H105      -76.4012   28.9105  -80.9613 H         1 UNK         0.0837 
    106 H106      -77.3941   28.1317  -78.7015 H         1 UNK         0.3020 
    107 H107      -77.4708   28.3408  -75.1868 H         1 UNK         0.1245 
    108 H108      -78.5356   30.4015  -77.1858 H         1 UNK         0.0781 
    109 H109      -77.6747   30.7420  -75.7061 H         1 UNK         0.0781 
    110 H110      -80.6429   31.4784  -73.4942 H         1 UNK         0.0836 
    111 H111      -79.3853   32.2202  -74.4459 H         1 UNK         0.0836 
    112 H112      -79.5668   27.9730  -76.9865 H         1 UNK         0.3022 
    113 H113      -80.5525   25.8965  -76.7801 H         1 UNK         0.0747 
    114 H114      -80.6462   24.9782  -79.1403 H         1 UNK         0.0793 
    115 H115      -78.9289   25.3443  -79.3161 H         1 UNK         0.0793 
    116 H116      -80.0825   26.6367  -79.0509 H         1 UNK         0.0793 
    117 H117      -80.0137   23.9865  -75.8421 H         1 UNK         0.3047 
    118 H118      -79.8119   20.9878  -77.1506 H         1 UNK         0.0822 
    119 H119      -77.9097   20.0824  -75.7747 H         1 UNK         0.0807 
    120 H120      -77.1538   21.6749  -75.7984 H         1 UNK         0.0807 
    121 H121      -77.3666   20.7804  -77.2916 H         1 UNK         0.0807 
    122 H122      -79.2695   21.8913  -74.4228 H         1 UNK         0.2946 
    123 H123      -82.5332   22.9846  -73.7592 H         1 UNK         0.1144 
    124 H124      -82.9556   20.5324  -73.4760 H         1 UNK         0.0793 
    125 H125      -82.6150   21.2974  -71.9334 H         1 UNK         0.0793 
    126 H126      -81.3737   20.3325  -72.7346 H         1 UNK         0.0793 
    127 H127      -80.2912   22.4366  -72.0560 H         1 UNK         0.2896 
@<TRIPOS>BOND
     1    1    2 1    
     2    1   67 1    
     3    1   68 1    
     4    1   69 1    
     5    2    3 2    
     6    2    4 am   BACKBONE|DICT|INTERRES
     7    4    5 1    
     8    4   70 1    
     9    5    6 1    
    10    5   65 1    
    11    5   71 1    
    12    6    7 1    
    13    6   72 1    
    14    6   73 1    
    15    7    8 1    
    16    8    9 1    
    17    8   74 1    
    18    8   75 1    
    19    9   10 ar   
    20    9   14 ar   
    21   10   11 ar   
    22   10   76 1    
    23   11   12 ar   
    24   11   48 1    
    25   12   13 ar   
    26   12   77 1    
    27   13   14 ar   
    28   13   15 1    
    29   14   78 1    
    30   15   16 1    
    31   15   79 1    
    32   15   80 1    
    33   16   17 1    
    34   17   18 1    
    35   17   81 1    
    36   17   82 1    
    37   18   19 1    
    38   18   22 1    
    39   18   83 1    
    40   19   20 am   BACKBONE|DICT|INTERRES
    41   19   21 2    
    42   20   84 1    
    43   20   85 1    
    44   22   23 am   BACKBONE|DICT|INTERRES
    45   22   86 1    
    46   23   24 2    
    47   23   25 1    
    48   25   26 1    
    49   25   27 1    
    50   25   87 1    
    51   26   88 1    
    52   26   89 1    
    53   26   90 1    
    54   27   28 am   BACKBONE|DICT|INTERRES
    55   27   91 1    
    56   28   29 2    
    57   28   30 1    
    58   30   31 1    
    59   30   32 1    
    60   30   92 1    
    61   31   93 1    
    62   31   94 1    
    63   31   95 1    
    64   32   33 am   BACKBONE|DICT|INTERRES
    65   32   96 1    
    66   33   34 2    
    67   33   35 1    
    68   35   36 1    
    69   35   37 1    
    70   35   97 1    
    71   36   98 1    
    72   36   99 1    
    73   36  100 1    
    74   37   38 am   BACKBONE|DICT|INTERRES
    75   37  101 1    
    76   38   39 2    
    77   38   40 1    
    78   40   41 1    
    79   40   42 1    
    80   40  102 1    
    81   41  103 1    
    82   41  104 1    
    83   41  105 1    
    84   42   43 am   BACKBONE|DICT|INTERRES
    85   42  106 1    
    86   43   44 2    
    87   43   45 1    
    88   45   46 1    
    89   45   49 1    
    90   45  107 1    
    91   46   47 1    
    92   46  108 1    
    93   46  109 1    
    94   47   48 1    
    95   48  110 1    
    96   48  111 1    
    97   49   50 am   BACKBONE|DICT|INTERRES
    98   49  112 1    
    99   50   51 2    
   100   50   52 1    
   101   52   53 1    
   102   52   54 1    
   103   52  113 1    
   104   53  114 1    
   105   53  115 1    
   106   53  116 1    
   107   54   55 am   BACKBONE|DICT|INTERRES
   108   54  117 1    
   109   55   56 2    
   110   55   57 1    
   111   57   58 1    
   112   57   59 1    
   113   57  118 1    
   114   58  119 1    
   115   58  120 1    
   116   58  121 1    
   117   59   60 am   BACKBONE|DICT|INTERRES
   118   59  122 1    
   119   60   61 2    
   120   60   62 1    
   121   62   63 1    
   122   62   64 1    
   123   62  123 1    
   124   63  124 1    
   125   63  125 1    
   126   63  126 1    
   127   64   65 am   BACKBONE|DICT|INTERRES
   128   64  127 1    
   129   65   66 2    
@<TRIPOS>SUBSTRUCTURE
     1 UNK         1 GROUP             0       ****    0 ROOT    
