@<TRIPOS>MOLECULE
3R135
127   129    1
SMALL
USER_CHARGES


@<TRIPOS>ATOM
      1 CA        -83.1929   28.9879  -74.5012 C.3       0 UNK        -0.1998 
      2 C         -83.7614   27.8162  -73.7042 C.2       0 UNK         0.4909 
      3 O         -84.9761   27.7354  -73.5331 O.2       0 UNK        -0.5240 
      4 N         -82.9378   26.8876  -73.1958 N.am      1 UNK        -0.4739 
      5 CA        -81.4743   26.8313  -73.3342 C.3       1 UNK         0.0864 
      6 C6        -80.8146   26.0271  -72.1864 C.3       11 UNK        -0.0881 
      7 S7        -81.1374   26.7810  -70.5555 S.3       11 UNK        -0.2682 
      8 C8        -79.4604   26.8790  -69.8330 C.3       11 UNK         0.0289 
      9 C9        -78.5017   27.8998  -70.4543 C.ar      11 UNK        -0.0687 
     10 C10       -78.9089   28.8846  -71.3658 C.ar      11 UNK        -0.0823 
     11 C11       -77.9876   29.7893  -71.9056 C.ar      11 UNK        -0.0830 
     12 C12       -76.6514   29.7292  -71.5025 C.ar      11 UNK        -0.1021 
     13 C13       -76.2337   28.7697  -70.5774 C.ar      11 UNK        -0.0753 
     14 C14       -77.1590   27.8568  -70.0655 C.ar      11 UNK        -0.0933 
     15 C15       -74.7832   28.7234  -70.1302 C.3       11 UNK         0.0166 
     16 S16       -73.8577   27.4969  -71.0943 S.3       11 UNK        -0.2615 
     17 C17       -72.1500   28.1112  -70.8865 C.3       11 UNK        -0.0865 
     18 CA        -71.7671   29.2415  -71.8838 C.3       10 UNK         0.0862 
     19 C         -70.2476   29.5638  -71.7753 C.2       10 UNK         0.5551 
     20 N         -69.4265   29.2412  -72.7687 N.am      10 UNK        -0.7319 
     21 O         -69.8100   30.1125  -70.7673 O.2       10 UNK        -0.5018 
     22 N         -72.2399   28.9392  -73.2398 N.am      10 UNK        -0.4509 
     23 C         -72.2559   29.7646  -74.2925 C.2       10 UNK         0.4899 
     24 O         -71.9265   30.9502  -74.2434 O.2       10 UNK        -0.4839 
     25 CA        -72.7276   29.1428  -75.6234 C.3       9 UNK         0.0222 
     26 CB        -72.0960   29.8168  -76.8586 C.3       9 UNK        -0.1966 
     27 N         -72.5543   27.6822  -75.6716 N.am      9 UNK        -0.4218 
     28 C         -71.4004   27.0027  -75.5632 C.2       9 UNK         0.5020 
     29 O         -70.2924   27.5332  -75.4686 O.2       9 UNK        -0.5274 
     30 CA        -71.5015   25.4748  -75.4843 C.3       8 UNK         0.0270 
     31 CB        -71.6537   25.0305  -74.0185 C.3       8 UNK        -0.1976 
     32 N         -72.6280   24.9612  -76.2671 N.am      8 UNK        -0.4313 
     33 C         -72.5072   24.4042  -77.4785 C.2       8 UNK         0.5041 
     34 O         -71.4367   24.2756  -78.0749 O.2       8 UNK        -0.5577 
     35 CA        -73.7929   23.8765  -78.1297 C.3       7 UNK         0.0284 
     36 CB        -74.2477   22.5721  -77.4529 C.3       7 UNK        -0.1958 
     37 N         -74.8917   24.8426  -78.1185 N.am      7 UNK        -0.4454 
     38 C         -74.9592   25.9315  -78.8974 C.2       7 UNK         0.5089 
     39 O         -74.0540   26.2984  -79.6467 O.2       7 UNK        -0.5125 
     40 CA        -76.2702   26.7313  -78.8552 C.3       6 UNK         0.0408 
     41 CB        -77.3805   25.9896  -79.6167 C.3       6 UNK        -0.1791 
     42 N         -76.6997   26.9687  -77.4782 N.am      6 UNK        -0.4762 
     43 C         -76.4281   28.0812  -76.7805 C.2       6 UNK         0.5007 
     44 O         -75.8610   29.0617  -77.2624 O.2       6 UNK        -0.5032 
     45 CA        -76.8384   28.1050  -75.2907 C.3       5 UNK         0.0783 
     46 C46       -78.0827   29.0024  -75.0457 C.3       11 UNK        -0.0857 
     47 S47       -77.6217   30.6911  -74.5327 S.3       11 UNK        -0.2512 
     48 C48       -78.4422   30.8449  -72.9082 C.3       11 UNK         0.0225 
     49 N         -77.0139   26.7595  -74.7341 N.am      5 UNK        -0.4615 
     50 C         -76.0038   25.9156  -74.4904 C.2       4 UNK         0.5053 
     51 O         -74.8303   26.1573  -74.7794 O.2       4 UNK        -0.5105 
     52 CA        -76.3524   24.5598  -73.8561 C.3       4 UNK         0.0263 
     53 CB        -76.4965   24.7121  -72.3334 C.3       4 UNK        -0.1981 
     54 N         -77.5457   23.8956  -74.3942 N.am      4 UNK        -0.4224 
     55 C         -77.7757   23.6090  -75.6844 C.2       3 UNK         0.4895 
     56 O         -77.0785   24.0178  -76.6121 O.2       3 UNK        -0.5091 
     57 CA        -78.9848   22.7078  -75.9894 C.3       3 UNK         0.0250 
     58 CB        -79.1558   21.5650  -74.9696 C.3       3 UNK        -0.1996 
     59 N         -80.2056   23.5058  -76.0398 N.am      3 UNK        -0.4254 
     60 C         -80.5846   24.2530  -77.0848 C.2       2 UNK         0.5004 
     61 O         -80.0490   24.2119  -78.1922 O.2       2 UNK        -0.5226 
     62 CA        -81.7552   25.2280  -76.8570 C.3       2 UNK         0.0269 
     63 CB        -83.0692   24.6205  -77.3746 C.3       2 UNK        -0.1926 
     64 N         -81.9467   25.6736  -75.4685 N.am      2 UNK        -0.4687 
     65 C         -81.0268   26.2838  -74.7042 C.2       1 UNK         0.5165 
     66 O         -79.8541   26.4307  -75.0417 O.2       1 UNK        -0.5079 
     67 H67       -83.9980   29.6283  -74.8611 H         1 UNK         0.0900 
     68 H68       -82.6354   28.6437  -75.3713 H         1 UNK         0.0900 
     69 H69       -82.5397   29.6001  -73.8802 H         1 UNK         0.0900 
     70 H70       -83.3421   26.1439  -72.6441 H         1 UNK         0.2959 
     71 H71       -81.0833   27.8475  -73.2849 H         1 UNK         0.1079 
     72 H72       -81.1807   24.9988  -72.1711 H         1 UNK         0.0837 
     73 H73       -79.7349   25.9634  -72.3352 H         1 UNK         0.0837 
     74 H74       -79.5678   27.1185  -68.7743 H         1 UNK         0.0685 
     75 H75       -79.0098   25.8862  -69.8773 H         1 UNK         0.0685 
     76 H76       -79.9452   28.9614  -71.6555 H         1 UNK         0.1434 
     77 H77       -75.9368   30.4308  -71.9111 H         1 UNK         0.1329 
     78 H78       -76.8294   27.1102  -69.3555 H         1 UNK         0.1335 
     79 H79       -74.3282   29.7081  -70.2468 H         1 UNK         0.0680 
     80 H80       -74.7192   28.4761  -69.0695 H         1 UNK         0.0680 
     81 H81       -72.0098   28.4449  -69.8564 H         1 UNK         0.1032 
     82 H82       -71.4855   27.2544  -71.0152 H         1 UNK         0.1032 
     83 H83       -72.2912   30.1474  -71.5746 H         1 UNK         0.0461 
     84 H84       -68.4452   29.4551  -72.6883 H         1 UNK         0.3453 
     85 H85       -69.7788   28.7890  -73.6019 H         1 UNK         0.3453 
     86 H86       -72.5685   27.9951  -73.3761 H         1 UNK         0.2984 
     87 H87       -73.8005   29.3233  -75.6627 H         1 UNK         0.0554 
     88 H88       -72.4642   29.3702  -77.7823 H         1 UNK         0.0847 
     89 H89       -71.0087   29.7362  -76.8546 H         1 UNK         0.0847 
     90 H90       -72.3429   30.8784  -76.8941 H         1 UNK         0.0847 
     91 H91       -73.4143   27.1419  -75.6376 H         1 UNK         0.3141 
     92 H92       -70.5614   25.0643  -75.8590 H         1 UNK         0.0743 
     93 H93       -70.8167   25.3848  -73.4150 H         1 UNK         0.0784 
     94 H94       -72.5671   25.4152  -73.5635 H         1 UNK         0.0784 
     95 H95       -71.6732   23.9437  -73.9363 H         1 UNK         0.0784 
     96 H96       -73.5514   25.0716  -75.8607 H         1 UNK         0.3213 
     97 H97       -73.5623   23.6468  -79.1725 H         1 UNK         0.0855 
     98 H98       -74.5252   22.7301  -76.4100 H         1 UNK         0.0814 
     99 H99       -73.4531   21.8250  -77.4704 H         1 UNK         0.0814 
    100 H100      -75.1088   22.1410  -77.9639 H         1 UNK         0.0814 
    101 H101      -75.7027   24.5978  -77.5504 H         1 UNK         0.3105 
    102 H102      -76.1016   27.6827  -79.3641 H         1 UNK         0.0547 
    103 H103      -78.3072   26.5632  -79.6247 H         1 UNK         0.0837 
    104 H104      -77.0945   25.8198  -80.6555 H         1 UNK         0.0837 
    105 H105      -77.5977   25.0159  -79.1757 H         1 UNK         0.0837 
    106 H106      -77.1392   26.1917  -76.9988 H         1 UNK         0.3020 
    107 H107      -75.9932   28.5388  -74.7508 H         1 UNK         0.1245 
    108 H108      -78.7058   28.5793  -74.2592 H         1 UNK         0.0781 
    109 H109      -78.7318   29.0556  -75.9222 H         1 UNK         0.0781 
    110 H110      -78.2300   31.8340  -72.5001 H         1 UNK         0.0836 
    111 H111      -79.5224   30.8029  -73.0562 H         1 UNK         0.0836 
    112 H112      -77.9726   26.4642  -74.5753 H         1 UNK         0.3022 
    113 H113      -75.5091   23.8934  -74.0481 H         1 UNK         0.0747 
    114 H114      -76.6453   23.7484  -71.8464 H         1 UNK         0.0793 
    115 H115      -77.3337   25.3585  -72.0680 H         1 UNK         0.0793 
    116 H116      -75.5984   25.1541  -71.9003 H         1 UNK         0.0793 
    117 H117      -78.1895   23.5258  -73.7115 H         1 UNK         0.3047 
    118 H118      -78.8114   22.2545  -76.9681 H         1 UNK         0.0822 
    119 H119      -78.2298   20.9989  -74.8568 H         1 UNK         0.0807 
    120 H120      -79.9207   20.8619  -75.3001 H         1 UNK         0.0807 
    121 H121      -79.4473   21.9233  -73.9819 H         1 UNK         0.0807 
    122 H122      -80.7186   23.6152  -75.1780 H         1 UNK         0.2946 
    123 H123      -81.5336   26.1180  -77.4502 H         1 UNK         0.1144 
    124 H124      -82.9710   24.3031  -78.4139 H         1 UNK         0.0793 
    125 H125      -83.8843   25.3434  -77.3358 H         1 UNK         0.0793 
    126 H126      -83.3654   23.7464  -76.7935 H         1 UNK         0.0793 
    127 H127      -82.8805   25.5850  -75.0930 H         1 UNK         0.2896 
@<TRIPOS>BOND
     1    1    2 1    
     2    1   67 1    
     3    1   68 1    
     4    1   69 1    
     5    2    3 2    
     6    2    4 am   BACKBONE|DICT|INTERRES
     7    4    5 1    
     8    4   70 1    
     9    5    6 1    
    10    5   65 1    
    11    5   71 1    
    12    6    7 1    
    13    6   72 1    
    14    6   73 1    
    15    7    8 1    
    16    8    9 1    
    17    8   74 1    
    18    8   75 1    
    19    9   10 ar   
    20    9   14 ar   
    21   10   11 ar   
    22   10   76 1    
    23   11   12 ar   
    24   11   48 1    
    25   12   13 ar   
    26   12   77 1    
    27   13   14 ar   
    28   13   15 1    
    29   14   78 1    
    30   15   16 1    
    31   15   79 1    
    32   15   80 1    
    33   16   17 1    
    34   17   18 1    
    35   17   81 1    
    36   17   82 1    
    37   18   19 1    
    38   18   22 1    
    39   18   83 1    
    40   19   20 am   BACKBONE|DICT|INTERRES
    41   19   21 2    
    42   20   84 1    
    43   20   85 1    
    44   22   23 am   BACKBONE|DICT|INTERRES
    45   22   86 1    
    46   23   24 2    
    47   23   25 1    
    48   25   26 1    
    49   25   27 1    
    50   25   87 1    
    51   26   88 1    
    52   26   89 1    
    53   26   90 1    
    54   27   28 am   BACKBONE|DICT|INTERRES
    55   27   91 1    
    56   28   29 2    
    57   28   30 1    
    58   30   31 1    
    59   30   32 1    
    60   30   92 1    
    61   31   93 1    
    62   31   94 1    
    63   31   95 1    
    64   32   33 am   BACKBONE|DICT|INTERRES
    65   32   96 1    
    66   33   34 2    
    67   33   35 1    
    68   35   36 1    
    69   35   37 1    
    70   35   97 1    
    71   36   98 1    
    72   36   99 1    
    73   36  100 1    
    74   37   38 am   BACKBONE|DICT|INTERRES
    75   37  101 1    
    76   38   39 2    
    77   38   40 1    
    78   40   41 1    
    79   40   42 1    
    80   40  102 1    
    81   41  103 1    
    82   41  104 1    
    83   41  105 1    
    84   42   43 am   BACKBONE|DICT|INTERRES
    85   42  106 1    
    86   43   44 2    
    87   43   45 1    
    88   45   46 1    
    89   45   49 1    
    90   45  107 1    
    91   46   47 1    
    92   46  108 1    
    93   46  109 1    
    94   47   48 1    
    95   48  110 1    
    96   48  111 1    
    97   49   50 am   BACKBONE|DICT|INTERRES
    98   49  112 1    
    99   50   51 2    
   100   50   52 1    
   101   52   53 1    
   102   52   54 1    
   103   52  113 1    
   104   53  114 1    
   105   53  115 1    
   106   53  116 1    
   107   54   55 am   BACKBONE|DICT|INTERRES
   108   54  117 1    
   109   55   56 2    
   110   55   57 1    
   111   57   58 1    
   112   57   59 1    
   113   57  118 1    
   114   58  119 1    
   115   58  120 1    
   116   58  121 1    
   117   59   60 am   BACKBONE|DICT|INTERRES
   118   59  122 1    
   119   60   61 2    
   120   60   62 1    
   121   62   63 1    
   122   62   64 1    
   123   62  123 1    
   124   63  124 1    
   125   63  125 1    
   126   63  126 1    
   127   64   65 am   BACKBONE|DICT|INTERRES
   128   64  127 1    
   129   65   66 2    
@<TRIPOS>SUBSTRUCTURE
     1 UNK         1 GROUP             0       ****    0 ROOT    
