@<TRIPOS>MOLECULE
3R135
127   129    1
SMALL
USER_CHARGES


@<TRIPOS>ATOM
      1 CA        -86.3125   30.1197  -76.3556 C.3       0 UNK        -0.1998 
      2 C         -85.1126   29.3786  -75.7841 C.2       0 UNK         0.4909 
      3 O         -85.2754   28.5739  -74.8662 O.2       0 UNK        -0.5240 
      4 N         -83.9138   29.6518  -76.3184 N.am      1 UNK        -0.4739 
      5 CA        -82.6382   29.0177  -75.9585 C.3       1 UNK         0.0864 
      6 C6        -82.2279   29.3028  -74.4845 C.3       11 UNK        -0.0881 
      7 S7        -80.4206   29.3415  -74.2819 S.3       11 UNK        -0.2682 
      8 C8        -80.2565   29.2974  -72.4719 C.3       11 UNK         0.0289 
      9 C9        -78.8570   28.8705  -72.0487 C.ar      11 UNK        -0.0687 
     10 C10       -78.6691   27.6690  -71.3579 C.ar      11 UNK        -0.0823 
     11 C11       -77.3914   27.2811  -70.9461 C.ar      11 UNK        -0.0830 
     12 C12       -76.3000   28.0989  -71.2389 C.ar      11 UNK        -0.1021 
     13 C13       -76.4600   29.2823  -71.9645 C.ar      11 UNK        -0.0753 
     14 C14       -77.7483   29.6702  -72.3498 C.ar      11 UNK        -0.0933 
     15 C15       -75.2540   30.1079  -72.4073 C.3       11 UNK         0.0166 
     16 S16       -74.0396   30.4559  -71.0884 S.3       11 UNK        -0.2615 
     17 C17       -72.8480   29.0717  -71.2232 C.3       11 UNK        -0.0865 
     18 CA        -71.6752   29.3756  -72.1884 C.3       10 UNK         0.0862 
     19 C         -70.5187   28.3629  -71.9924 C.2       10 UNK         0.5551 
     20 N         -69.4118   28.7887  -71.4000 N.am      10 UNK        -0.7319 
     21 O         -70.6345   27.1871  -72.3320 O.2       10 UNK        -0.5018 
     22 N         -72.1268   29.3373  -73.5818 N.am      10 UNK        -0.4509 
     23 C         -71.6697   30.1279  -74.5577 C.2       10 UNK         0.4899 
     24 O         -70.8524   31.0340  -74.3841 O.2       10 UNK        -0.4839 
     25 CA        -72.2327   29.8488  -75.9635 C.3       9 UNK         0.0222 
     26 CB        -71.5824   30.7119  -77.0658 C.3       9 UNK        -0.1966 
     27 N         -72.1836   28.4245  -76.3117 N.am      9 UNK        -0.4218 
     28 C         -71.0951   27.6439  -76.4146 C.2       9 UNK         0.5020 
     29 O         -69.9421   28.0516  -76.2657 O.2       9 UNK        -0.5274 
     30 CA        -71.3087   26.1485  -76.7271 C.3       8 UNK         0.0270 
     31 CB        -70.9355   25.2936  -75.5042 C.3       8 UNK        -0.1976 
     32 N         -72.6740   25.8113  -77.1375 N.am      8 UNK        -0.4313 
     33 C         -73.2349   26.1258  -78.3127 C.2       8 UNK         0.5041 
     34 O         -72.6312   26.6708  -79.2371 O.2       8 UNK        -0.5577 
     35 CA        -74.7388   25.8269  -78.4592 C.3       7 UNK         0.0284 
     36 CB        -74.9669   24.3825  -78.9317 C.3       7 UNK        -0.1958 
     37 N         -75.4937   26.0733  -77.2239 N.am      7 UNK        -0.4454 
     38 C         -75.6167   27.2736  -76.6362 C.2       7 UNK         0.5089 
     39 O         -75.1269   28.3098  -77.0830 O.2       7 UNK        -0.5125 
     40 CA        -76.3680   27.3184  -75.3005 C.3       6 UNK         0.0408 
     41 CB        -77.8814   27.3213  -75.5334 C.3       6 UNK        -0.1791 
     42 N         -75.9997   26.1976  -74.4381 N.am      6 UNK        -0.4762 
     43 C         -74.8276   26.0994  -73.7937 C.2       6 UNK         0.5007 
     44 O         -73.9617   26.9767  -73.8197 O.2       6 UNK        -0.5032 
     45 CA        -74.5441   24.7741  -73.0524 C.3       5 UNK         0.0783 
     46 C46       -74.9758   24.8049  -71.5635 C.3       11 UNK        -0.0857 
     47 S47       -76.7761   24.5984  -71.2936 S.3       11 UNK        -0.2512 
     48 C48       -77.1865   25.9816  -70.1826 C.3       11 UNK         0.0225 
     49 N         -75.0969   23.6094  -73.7495 N.am      5 UNK        -0.4615 
     50 C         -74.7286   23.1928  -74.9658 C.2       4 UNK         0.5053 
     51 O         -73.8291   23.7160  -75.6199 O.2       4 UNK        -0.5105 
     52 CA        -75.5167   22.0212  -75.5729 C.3       4 UNK         0.0263 
     53 CB        -74.8092   20.6905  -75.2729 C.3       4 UNK        -0.1981 
     54 N         -76.9128   21.9437  -75.1282 N.am      4 UNK        -0.4224 
     55 C         -77.8503   22.8756  -75.3543 C.2       3 UNK         0.4895 
     56 O         -77.6246   23.9413  -75.9325 O.2       3 UNK        -0.5091 
     57 CA        -79.2635   22.5192  -74.8582 C.3       3 UNK         0.0250 
     58 CB        -79.3331   22.4399  -73.3174 C.3       3 UNK        -0.1996 
     59 N         -80.3218   23.3759  -75.4133 N.am      3 UNK        -0.4254 
     60 C         -80.6607   24.6293  -75.0745 C.2       2 UNK         0.5004 
     61 O         -80.1297   25.2928  -74.1814 O.2       2 UNK        -0.5226 
     62 CA        -81.8511   25.2178  -75.8448 C.3       2 UNK         0.0269 
     63 CB        -83.1693   24.5409  -75.4132 C.3       2 UNK        -0.1926 
     64 N         -81.9367   26.6598  -75.6130 N.am      2 UNK        -0.4687 
     65 C         -82.6170   27.5244  -76.3763 C.2       1 UNK         0.5165 
     66 O         -83.2088   27.1829  -77.4046 O.2       1 UNK        -0.5079 
     67 H67       -87.0314   29.4099  -76.7639 H         1 UNK         0.0900 
     68 H68       -86.8069   30.6935  -75.5722 H         1 UNK         0.0900 
     69 H69       -86.0268   30.8081  -77.1508 H         1 UNK         0.0900 
     70 H70       -83.8618   30.3016  -77.0908 H         1 UNK         0.2959 
     71 H71       -81.9051   29.4997  -76.6077 H         1 UNK         0.1079 
     72 H72       -82.6797   28.5850  -73.7972 H         1 UNK         0.0837 
     73 H73       -82.5979   30.2817  -74.1750 H         1 UNK         0.0837 
     74 H74       -81.0013   28.6164  -72.0573 H         1 UNK         0.0685 
     75 H75       -80.4770   30.2853  -72.0652 H         1 UNK         0.0685 
     76 H76       -79.5170   27.0343  -71.1391 H         1 UNK         0.1434 
     77 H77       -75.3219   27.7949  -70.9119 H         1 UNK         0.1329 
     78 H78       -77.8923   30.5831  -72.9113 H         1 UNK         0.1335 
     79 H79       -74.7688   29.5981  -73.2382 H         1 UNK         0.0680 
     80 H80       -75.5882   31.0687  -72.8014 H         1 UNK         0.0680 
     81 H81       -73.3428   28.1509  -71.5260 H         1 UNK         0.1032 
     82 H82       -72.4706   28.8878  -70.2153 H         1 UNK         0.1032 
     83 H83       -71.3014   30.3749  -71.9547 H         1 UNK         0.0461 
     84 H84       -69.3117   29.7496  -71.1113 H         1 UNK         0.3453 
     85 H85       -68.6557   28.1391  -71.2501 H         1 UNK         0.3453 
     86 H86       -72.7450   28.5655  -73.8155 H         1 UNK         0.2984 
     87 H87       -73.2903   30.1136  -75.9238 H         1 UNK         0.0554 
     88 H88       -71.7248   31.7741  -76.8636 H         1 UNK         0.0847 
     89 H89       -72.0237   30.5062  -78.0410 H         1 UNK         0.0847 
     90 H90       -70.5086   30.5375  -77.1396 H         1 UNK         0.0847 
     91 H91       -73.0878   27.9961  -76.4712 H         1 UNK         0.3141 
     92 H92       -70.6351   25.8886  -77.5461 H         1 UNK         0.0743 
     93 H93       -69.9067   25.4800  -75.1930 H         1 UNK         0.0784 
     94 H94       -71.5767   25.5158  -74.6501 H         1 UNK         0.0784 
     95 H95       -71.0207   24.2286  -75.7209 H         1 UNK         0.0784 
     96 H96       -73.2215   25.2628  -76.4767 H         1 UNK         0.3213 
     97 H97       -75.1352   26.5002  -79.2223 H         1 UNK         0.0855 
     98 H98       -74.5375   23.6575  -78.2410 H         1 UNK         0.0814 
     99 H99       -74.5003   24.2163  -79.9036 H         1 UNK         0.0814 
    100 H100      -76.0286   24.1594  -79.0391 H         1 UNK         0.0814 
    101 H101      -75.9464   25.2795  -76.7868 H         1 UNK         0.3105 
    102 H102      -76.1061   28.2465  -74.7894 H         1 UNK         0.0547 
    103 H103      -78.2137   26.4660  -76.1210 H         1 UNK         0.0837 
    104 H104      -78.1909   28.2215  -76.0650 H         1 UNK         0.0837 
    105 H105      -78.4147   27.2985  -74.5841 H         1 UNK         0.0837 
    106 H106      -76.6507   25.4238  -74.3955 H         1 UNK         0.3020 
    107 H107      -73.4573   24.6604  -73.0678 H         1 UNK         0.1245 
    108 H108      -74.6086   25.7055  -71.0725 H         1 UNK         0.0781 
    109 H109      -74.4851   23.9831  -71.0399 H         1 UNK         0.0781 
    110 H110      -76.4075   26.0982  -69.4275 H         1 UNK         0.0836 
    111 H111      -78.0965   25.7285  -69.6367 H         1 UNK         0.0836 
    112 H112      -75.8567   23.1370  -73.2817 H         1 UNK         0.3022 
    113 H113      -75.5278   22.1629  -76.6550 H         1 UNK         0.0747 
    114 H114      -75.2972   19.8574  -75.7793 H         1 UNK         0.0793 
    115 H115      -73.7740   20.7134  -75.6170 H         1 UNK         0.0793 
    116 H116      -74.7924   20.4728  -74.2042 H         1 UNK         0.0793 
    117 H117      -77.1823   21.0950  -74.6512 H         1 UNK         0.3047 
    118 H118      -79.4791   21.5217  -75.2447 H         1 UNK         0.0822 
    119 H119      -80.3399   22.1958  -72.9786 H         1 UNK         0.0807 
    120 H120      -79.0426   23.3791  -72.8471 H         1 UNK         0.0807 
    121 H121      -78.6686   21.6688  -72.9269 H         1 UNK         0.0807 
    122 H122      -80.8326   22.9552  -76.1769 H         1 UNK         0.2946 
    123 H123      -81.6798   25.0436  -76.9097 H         1 UNK         0.1144 
    124 H124      -84.0198   24.9184  -75.9809 H         1 UNK         0.0793 
    125 H125      -83.3752   24.7082  -74.3552 H         1 UNK         0.0793 
    126 H126      -83.1356   23.4626  -75.5724 H         1 UNK         0.0793 
    127 H127      -81.3961   26.9934  -74.8222 H         1 UNK         0.2896 
@<TRIPOS>BOND
     1    1    2 1    
     2    1   67 1    
     3    1   68 1    
     4    1   69 1    
     5    2    3 2    
     6    2    4 am   BACKBONE|DICT|INTERRES
     7    4    5 1    
     8    4   70 1    
     9    5    6 1    
    10    5   65 1    
    11    5   71 1    
    12    6    7 1    
    13    6   72 1    
    14    6   73 1    
    15    7    8 1    
    16    8    9 1    
    17    8   74 1    
    18    8   75 1    
    19    9   10 ar   
    20    9   14 ar   
    21   10   11 ar   
    22   10   76 1    
    23   11   12 ar   
    24   11   48 1    
    25   12   13 ar   
    26   12   77 1    
    27   13   14 ar   
    28   13   15 1    
    29   14   78 1    
    30   15   16 1    
    31   15   79 1    
    32   15   80 1    
    33   16   17 1    
    34   17   18 1    
    35   17   81 1    
    36   17   82 1    
    37   18   19 1    
    38   18   22 1    
    39   18   83 1    
    40   19   20 am   BACKBONE|DICT|INTERRES
    41   19   21 2    
    42   20   84 1    
    43   20   85 1    
    44   22   23 am   BACKBONE|DICT|INTERRES
    45   22   86 1    
    46   23   24 2    
    47   23   25 1    
    48   25   26 1    
    49   25   27 1    
    50   25   87 1    
    51   26   88 1    
    52   26   89 1    
    53   26   90 1    
    54   27   28 am   BACKBONE|DICT|INTERRES
    55   27   91 1    
    56   28   29 2    
    57   28   30 1    
    58   30   31 1    
    59   30   32 1    
    60   30   92 1    
    61   31   93 1    
    62   31   94 1    
    63   31   95 1    
    64   32   33 am   BACKBONE|DICT|INTERRES
    65   32   96 1    
    66   33   34 2    
    67   33   35 1    
    68   35   36 1    
    69   35   37 1    
    70   35   97 1    
    71   36   98 1    
    72   36   99 1    
    73   36  100 1    
    74   37   38 am   BACKBONE|DICT|INTERRES
    75   37  101 1    
    76   38   39 2    
    77   38   40 1    
    78   40   41 1    
    79   40   42 1    
    80   40  102 1    
    81   41  103 1    
    82   41  104 1    
    83   41  105 1    
    84   42   43 am   BACKBONE|DICT|INTERRES
    85   42  106 1    
    86   43   44 2    
    87   43   45 1    
    88   45   46 1    
    89   45   49 1    
    90   45  107 1    
    91   46   47 1    
    92   46  108 1    
    93   46  109 1    
    94   47   48 1    
    95   48  110 1    
    96   48  111 1    
    97   49   50 am   BACKBONE|DICT|INTERRES
    98   49  112 1    
    99   50   51 2    
   100   50   52 1    
   101   52   53 1    
   102   52   54 1    
   103   52  113 1    
   104   53  114 1    
   105   53  115 1    
   106   53  116 1    
   107   54   55 am   BACKBONE|DICT|INTERRES
   108   54  117 1    
   109   55   56 2    
   110   55   57 1    
   111   57   58 1    
   112   57   59 1    
   113   57  118 1    
   114   58  119 1    
   115   58  120 1    
   116   58  121 1    
   117   59   60 am   BACKBONE|DICT|INTERRES
   118   59  122 1    
   119   60   61 2    
   120   60   62 1    
   121   62   63 1    
   122   62   64 1    
   123   62  123 1    
   124   63  124 1    
   125   63  125 1    
   126   63  126 1    
   127   64   65 am   BACKBONE|DICT|INTERRES
   128   64  127 1    
   129   65   66 2    
@<TRIPOS>SUBSTRUCTURE
     1 UNK         1 GROUP             0       ****    0 ROOT    
