@<TRIPOS>MOLECULE
3R135
127   129    1
SMALL
USER_CHARGES


@<TRIPOS>ATOM
      1 CA        -85.7626   28.9156  -75.2271 C.3       0 UNK        -0.1998 
      2 C         -84.2771   28.8731  -75.5520 C.2       0 UNK         0.4909 
      3 O         -83.8562   29.4272  -76.5678 O.2       0 UNK        -0.5240 
      4 N         -83.4796   28.2203  -74.6962 N.am      1 UNK        -0.4739 
      5 CA        -82.0242   28.0800  -74.8474 C.3       1 UNK         0.0864 
      6 C6        -81.3489   27.6212  -73.5300 C.3       11 UNK        -0.0881 
      7 S7        -81.6075   28.7969  -72.1599 S.3       11 UNK        -0.2682 
      8 C8        -80.0668   29.7795  -72.2265 C.3       11 UNK         0.0289 
      9 C9        -78.8019   29.1168  -71.6695 C.ar      11 UNK        -0.0687 
     10 C10       -78.7843   27.8316  -71.1086 C.ar      11 UNK        -0.0823 
     11 C11       -77.5992   27.2865  -70.6035 C.ar      11 UNK        -0.0830 
     12 C12       -76.4170   28.0292  -70.6664 C.ar      11 UNK        -0.1021 
     13 C13       -76.4148   29.3116  -71.2210 C.ar      11 UNK        -0.0753 
     14 C14       -77.6092   29.8465  -71.7142 C.ar      11 UNK        -0.0933 
     15 C15       -75.1327   30.1334  -71.2566 C.3       11 UNK         0.0166 
     16 S16       -74.6302   30.5240  -72.9597 S.3       11 UNK        -0.2615 
     17 C17       -73.1127   31.5028  -72.6813 C.3       11 UNK        -0.0865 
     18 CA        -71.8093   30.8162  -73.1787 C.3       10 UNK         0.0862 
     19 C         -71.2888   29.7009  -72.2261 C.2       10 UNK         0.5551 
     20 N         -71.0121   30.0387  -70.9731 N.am      10 UNK        -0.7319 
     21 O         -71.1158   28.5433  -72.6017 O.2       10 UNK        -0.5018 
     22 N         -71.9507   30.3656  -74.5689 N.am      10 UNK        -0.4509 
     23 C         -70.9687   30.2987  -75.4714 C.2       10 UNK         0.4899 
     24 O         -69.8133   30.6783  -75.2714 O.2       10 UNK        -0.4839 
     25 CA        -71.3780   29.7053  -76.8279 C.3       9 UNK         0.0222 
     26 CB        -70.3894   30.0351  -77.9678 C.3       9 UNK        -0.1966 
     27 N         -71.6325   28.2651  -76.7194 N.am      9 UNK        -0.4218 
     28 C         -70.7433   27.2817  -76.4975 C.2       9 UNK         0.5020 
     29 O         -69.5326   27.4674  -76.3664 O.2       9 UNK        -0.5274 
     30 CA        -71.2679   25.8301  -76.4126 C.3       8 UNK         0.0270 
     31 CB        -71.0701   25.2710  -74.9931 C.3       8 UNK        -0.1976 
     32 N         -72.6730   25.6582  -76.7910 N.am      8 UNK        -0.4313 
     33 C         -73.1972   25.8607  -78.0075 C.2       8 UNK         0.5041 
     34 O         -72.5262   26.1108  -79.0091 O.2       8 UNK        -0.5577 
     35 CA        -74.7343   25.8325  -78.1170 C.3       7 UNK         0.0284 
     36 CB        -75.2092   24.4664  -78.6333 C.3       7 UNK        -0.1958 
     37 N         -75.4297   26.1553  -76.8628 N.am      7 UNK        -0.4454 
     38 C         -75.3187   27.3152  -76.1943 C.2       7 UNK         0.5089 
     39 O         -74.6037   28.2503  -76.5580 O.2       7 UNK        -0.5125 
     40 CA        -76.0941   27.4289  -74.8755 C.3       6 UNK         0.0408 
     41 CB        -77.5678   27.7626  -75.1269 C.3       6 UNK        -0.1791 
     42 N         -75.9894   26.1997  -74.0919 N.am      6 UNK        -0.4762 
     43 C         -74.9527   25.9094  -73.2928 C.2       6 UNK         0.5007 
     44 O         -74.0196   26.6808  -73.0764 O.2       6 UNK        -0.5032 
     45 CA        -74.9197   24.5043  -72.6568 C.3       5 UNK         0.0783 
     46 C46       -75.5039   24.4948  -71.2221 C.3       11 UNK        -0.0857 
     47 S47       -77.3304   24.5768  -71.1557 S.3       11 UNK        -0.2512 
     48 C48       -77.6138   25.9113  -69.9520 C.3       11 UNK         0.0225 
     49 N         -75.5322   23.4767  -73.5027 N.am      5 UNK        -0.4615 
     50 C         -75.0762   23.0892  -74.6999 C.2       4 UNK         0.5053 
     51 O         -74.0525   23.5316  -75.2185 O.2       4 UNK        -0.5105 
     52 CA        -75.9309   22.0629  -75.4628 C.3       4 UNK         0.0263 
     53 CB        -75.4982   20.6334  -75.1012 C.3       4 UNK        -0.1981 
     54 N         -77.3736   22.2096  -75.2384 N.am      4 UNK        -0.4224 
     55 C         -78.0942   23.3021  -75.5275 C.2       3 UNK         0.4895 
     56 O         -77.6185   24.3441  -75.9881 O.2       3 UNK        -0.5091 
     57 CA        -79.5860   23.2263  -75.1917 C.3       3 UNK         0.0250 
     58 CB        -79.8302   23.6039  -73.7198 C.3       3 UNK        -0.1996 
     59 N         -80.3363   24.1384  -76.0499 N.am      3 UNK        -0.4254 
     60 C         -81.5806   23.9265  -76.4938 C.2       2 UNK         0.5004 
     61 O         -82.2261   22.9030  -76.2575 O.2       2 UNK        -0.5226 
     62 CA        -82.2340   25.0835  -77.2710 C.3       2 UNK         0.0269 
     63 CB        -83.5444   24.6703  -77.9677 C.3       2 UNK        -0.1926 
     64 N         -82.5157   26.1835  -76.3477 N.am      2 UNK        -0.4687 
     65 C         -81.6297   27.1233  -75.9918 C.2       1 UNK         0.5165 
     66 O         -80.5180   27.2269  -76.5094 O.2       1 UNK        -0.5079 
     67 H67       -86.3355   28.4513  -76.0293 H         1 UNK         0.0900 
     68 H68       -86.0945   29.9484  -75.1246 H         1 UNK         0.0900 
     69 H69       -85.9925   28.3924  -74.2991 H         1 UNK         0.0900 
     70 H70       -83.8737   27.8093  -73.8615 H         1 UNK         0.2959 
     71 H71       -81.6197   29.0597  -75.1124 H         1 UNK         0.1079 
     72 H72       -81.7388   26.6497  -73.2196 H         1 UNK         0.0837 
     73 H73       -80.2774   27.4761  -73.6712 H         1 UNK         0.0837 
     74 H74       -80.2404   30.7004  -71.6681 H         1 UNK         0.0685 
     75 H75       -79.8878   30.0785  -73.2605 H         1 UNK         0.0685 
     76 H76       -79.6897   27.2457  -71.0483 H         1 UNK         0.1434 
     77 H77       -75.4994   27.6145  -70.2733 H         1 UNK         0.1329 
     78 H78       -77.6064   30.8418  -72.1376 H         1 UNK         0.1335 
     79 H79       -75.2877   31.0600  -70.7021 H         1 UNK         0.0680 
     80 H80       -74.3177   29.6023  -70.7618 H         1 UNK         0.0680 
     81 H81       -73.2391   32.4433  -73.2196 H         1 UNK         0.1032 
     82 H82       -73.0361   31.7900  -71.6316 H         1 UNK         0.1032 
     83 H83       -71.0322   31.5832  -73.1672 H         1 UNK         0.0461 
     84 H84       -70.6680   29.3303  -70.3441 H         1 UNK         0.3453 
     85 H85       -71.1176   30.9864  -70.6475 H         1 UNK         0.3453 
     86 H86       -72.8574   29.9850  -74.8023 H         1 UNK         0.2984 
     87 H87       -72.3339   30.1583  -77.0968 H         1 UNK         0.0554 
     88 H88       -70.7230   29.6131  -78.9158 H         1 UNK         0.0847 
     89 H89       -69.3858   29.6590  -77.7684 H         1 UNK         0.0847 
     90 H90       -70.3050   31.1138  -78.1037 H         1 UNK         0.0847 
     91 H91       -72.6142   28.0084  -76.7657 H         1 UNK         0.3141 
     92 H92       -70.6677   25.2335  -77.1023 H         1 UNK         0.0743 
     93 H93       -70.0237   25.3282  -74.6905 H         1 UNK         0.0784 
     94 H94       -71.6510   25.8300  -74.2582 H         1 UNK         0.0784 
     95 H95       -71.3662   24.2236  -74.9315 H         1 UNK         0.0784 
     96 H96       -73.3019   25.3512  -76.0573 H         1 UNK         0.3213 
     97 H97       -75.0226   26.5922  -78.8464 H         1 UNK         0.0855 
     98 H98       -74.8487   23.6559  -78.0016 H         1 UNK         0.0814 
     99 H99       -74.8310   24.2813  -79.6396 H         1 UNK         0.0814 
    100 H100      -76.2969   24.4067  -78.6779 H         1 UNK         0.0814 
    101 H101      -76.0733   25.4555  -76.5033 H         1 UNK         0.3105 
    102 H102      -75.6657   28.2516  -74.3038 H         1 UNK         0.0547 
    103 H103      -78.0782   26.9596  -75.6568 H         1 UNK         0.0837 
    104 H104      -78.0885   27.9346  -74.1873 H         1 UNK         0.0837 
    105 H105      -77.6702   28.6689  -75.7249 H         1 UNK         0.0837 
    106 H106      -76.6960   25.4936  -74.2498 H         1 UNK         0.3020 
    107 H107      -73.8607   24.2471  -72.5739 H         1 UNK         0.1245 
    108 H108      -75.0640   25.2957  -70.6260 H         1 UNK         0.0781 
    109 H109      -75.2063   23.5716  -70.7227 H         1 UNK         0.0781 
    110 H110      -76.8769   25.8564  -69.1492 H         1 UNK         0.0836 
    111 H111      -78.5813   25.7448  -69.4757 H         1 UNK         0.0836 
    112 H112      -76.3881   23.0719  -73.1525 H         1 UNK         0.3022 
    113 H113      -75.7523   22.2081  -76.5283 H         1 UNK         0.0747 
    114 H114      -76.0264   19.8937  -75.7032 H         1 UNK         0.0793 
    115 H115      -74.4315   20.4919  -75.2819 H         1 UNK         0.0793 
    116 H116      -75.6833   20.4072  -74.0503 H         1 UNK         0.0793 
    117 H117      -77.8486   21.4076  -74.8489 H         1 UNK         0.3047 
    118 H118      -79.9207   22.2009  -75.3644 H         1 UNK         0.0822 
    119 H119      -79.2935   22.9358  -73.0453 H         1 UNK         0.0807 
    120 H120      -80.8876   23.5368  -73.4635 H         1 UNK         0.0807 
    121 H121      -79.4999   24.6215  -73.5050 H         1 UNK         0.0807 
    122 H122      -79.8521   24.9924  -76.3039 H         1 UNK         0.2946 
    123 H123      -81.5318   25.4100  -78.0421 H         1 UNK         0.1144 
    124 H124      -83.3733   23.8461  -78.6615 H         1 UNK         0.0793 
    125 H125      -83.9626   25.4962  -78.5435 H         1 UNK         0.0793 
    126 H126      -84.3011   24.3443  -77.2530 H         1 UNK         0.0793 
    127 H127      -83.3990   26.1533  -75.8593 H         1 UNK         0.2896 
@<TRIPOS>BOND
     1    1    2 1    
     2    1   67 1    
     3    1   68 1    
     4    1   69 1    
     5    2    3 2    
     6    2    4 am   BACKBONE|DICT|INTERRES
     7    4    5 1    
     8    4   70 1    
     9    5    6 1    
    10    5   65 1    
    11    5   71 1    
    12    6    7 1    
    13    6   72 1    
    14    6   73 1    
    15    7    8 1    
    16    8    9 1    
    17    8   74 1    
    18    8   75 1    
    19    9   10 ar   
    20    9   14 ar   
    21   10   11 ar   
    22   10   76 1    
    23   11   12 ar   
    24   11   48 1    
    25   12   13 ar   
    26   12   77 1    
    27   13   14 ar   
    28   13   15 1    
    29   14   78 1    
    30   15   16 1    
    31   15   79 1    
    32   15   80 1    
    33   16   17 1    
    34   17   18 1    
    35   17   81 1    
    36   17   82 1    
    37   18   19 1    
    38   18   22 1    
    39   18   83 1    
    40   19   20 am   BACKBONE|DICT|INTERRES
    41   19   21 2    
    42   20   84 1    
    43   20   85 1    
    44   22   23 am   BACKBONE|DICT|INTERRES
    45   22   86 1    
    46   23   24 2    
    47   23   25 1    
    48   25   26 1    
    49   25   27 1    
    50   25   87 1    
    51   26   88 1    
    52   26   89 1    
    53   26   90 1    
    54   27   28 am   BACKBONE|DICT|INTERRES
    55   27   91 1    
    56   28   29 2    
    57   28   30 1    
    58   30   31 1    
    59   30   32 1    
    60   30   92 1    
    61   31   93 1    
    62   31   94 1    
    63   31   95 1    
    64   32   33 am   BACKBONE|DICT|INTERRES
    65   32   96 1    
    66   33   34 2    
    67   33   35 1    
    68   35   36 1    
    69   35   37 1    
    70   35   97 1    
    71   36   98 1    
    72   36   99 1    
    73   36  100 1    
    74   37   38 am   BACKBONE|DICT|INTERRES
    75   37  101 1    
    76   38   39 2    
    77   38   40 1    
    78   40   41 1    
    79   40   42 1    
    80   40  102 1    
    81   41  103 1    
    82   41  104 1    
    83   41  105 1    
    84   42   43 am   BACKBONE|DICT|INTERRES
    85   42  106 1    
    86   43   44 2    
    87   43   45 1    
    88   45   46 1    
    89   45   49 1    
    90   45  107 1    
    91   46   47 1    
    92   46  108 1    
    93   46  109 1    
    94   47   48 1    
    95   48  110 1    
    96   48  111 1    
    97   49   50 am   BACKBONE|DICT|INTERRES
    98   49  112 1    
    99   50   51 2    
   100   50   52 1    
   101   52   53 1    
   102   52   54 1    
   103   52  113 1    
   104   53  114 1    
   105   53  115 1    
   106   53  116 1    
   107   54   55 am   BACKBONE|DICT|INTERRES
   108   54  117 1    
   109   55   56 2    
   110   55   57 1    
   111   57   58 1    
   112   57   59 1    
   113   57  118 1    
   114   58  119 1    
   115   58  120 1    
   116   58  121 1    
   117   59   60 am   BACKBONE|DICT|INTERRES
   118   59  122 1    
   119   60   61 2    
   120   60   62 1    
   121   62   63 1    
   122   62   64 1    
   123   62  123 1    
   124   63  124 1    
   125   63  125 1    
   126   63  126 1    
   127   64   65 am   BACKBONE|DICT|INTERRES
   128   64  127 1    
   129   65   66 2    
@<TRIPOS>SUBSTRUCTURE
     1 UNK         1 GROUP             0       ****    0 ROOT    
