@<TRIPOS>MOLECULE
3R135
127   129    1
SMALL
USER_CHARGES


@<TRIPOS>ATOM
      1 CA        -77.6452   29.8500  -77.0738 C.3       0 UNK        -0.1998 
      2 C         -77.9061   29.2291  -75.7095 C.2       0 UNK         0.4909 
      3 O         -77.1532   28.3575  -75.2781 O.2       0 UNK        -0.5240 
      4 N         -78.9536   29.6917  -75.0200 N.am      1 UNK        -0.4739 
      5 CA        -79.4707   29.0909  -73.7904 C.3       1 UNK         0.0864 
      6 C6        -80.1200   30.1756  -72.8953 C.3       11 UNK        -0.0881 
      7 S7        -80.8006   29.5577  -71.3187 S.3       11 UNK        -0.2682 
      8 C8        -79.4432   29.8972  -70.1451 C.3       11 UNK         0.0289 
      9 C9        -78.3008   28.8851  -70.2034 C.ar      11 UNK        -0.0687 
     10 C10       -78.5511   27.5178  -70.3704 C.ar      11 UNK        -0.0823 
     11 C11       -77.5038   26.5923  -70.3845 C.ar      11 UNK        -0.0830 
     12 C12       -76.1930   27.0436  -70.1988 C.ar      11 UNK        -0.1021 
     13 C13       -75.9248   28.4034  -70.0271 C.ar      11 UNK        -0.0753 
     14 C14       -76.9827   29.3186  -70.0268 C.ar      11 UNK        -0.0933 
     15 C15       -74.4904   28.8697  -69.8226 C.3       11 UNK         0.0166 
     16 S16       -73.6399   29.1637  -71.4063 S.3       11 UNK        -0.2615 
     17 C17       -74.3765   30.7542  -71.9167 C.3       11 UNK        -0.0865 
     18 CA        -75.4703   30.5849  -73.0089 C.3       10 UNK         0.0862 
     19 C         -76.3233   31.8776  -73.1840 C.2       10 UNK         0.5551 
     20 N         -76.5672   32.3675  -74.3929 N.am      10 UNK        -0.7319 
     21 O         -76.8108   32.4268  -72.1995 O.2       10 UNK        -0.5018 
     22 N         -74.9610   29.9768  -74.2506 N.am      10 UNK        -0.4509 
     23 C         -74.0376   30.4736  -75.0814 C.2       10 UNK         0.4899 
     24 O         -73.4581   31.5479  -74.9174 O.2       10 UNK        -0.4839 
     25 CA        -73.7369   29.6037  -76.3115 C.3       9 UNK         0.0222 
     26 CB        -73.0162   30.3659  -77.4435 C.3       9 UNK        -0.1966 
     27 N         -73.0186   28.3851  -75.9358 N.am      9 UNK        -0.4218 
     28 C         -71.7710   28.2647  -75.4553 C.2       9 UNK         0.5020 
     29 O         -71.0023   29.2055  -75.2547 O.2       9 UNK        -0.5274 
     30 CA        -71.2842   26.8328  -75.1737 C.3       8 UNK         0.0270 
     31 CB        -71.5998   26.4310  -73.7224 C.3       8 UNK        -0.1976 
     32 N         -71.8936   25.8700  -76.0963 N.am      8 UNK        -0.4313 
     33 C         -71.4186   25.5754  -77.3153 C.2       8 UNK         0.5041 
     34 O         -70.3433   25.9911  -77.7488 O.2       8 UNK        -0.5577 
     35 CA        -72.2870   24.6700  -78.2117 C.3       7 UNK         0.0284 
     36 CB        -71.9276   23.1915  -77.9929 C.3       7 UNK        -0.1958 
     37 N         -73.7246   24.8557  -77.9973 N.am      7 UNK        -0.4454 
     38 C         -74.4154   25.9520  -78.3433 C.2       7 UNK         0.5089 
     39 O         -73.9386   26.8832  -78.9912 O.2       7 UNK        -0.5125 
     40 CA        -75.8736   26.0505  -77.8510 C.3       6 UNK         0.0408 
     41 CB        -76.8548   25.6885  -78.9756 C.3       6 UNK        -0.1791 
     42 N         -76.1805   25.2407  -76.6655 N.am      6 UNK        -0.4762 
     43 C         -75.5771   25.3492  -75.4716 C.2       6 UNK         0.5007 
     44 O         -74.6342   26.1140  -75.2686 O.2       6 UNK        -0.5032 
     45 CA        -76.0396   24.4267  -74.3285 C.3       5 UNK         0.0783 
     46 C46       -76.5563   25.2442  -73.1205 C.3       11 UNK        -0.0857 
     47 S47       -76.6383   24.2049  -71.6231 S.3       11 UNK        -0.2512 
     48 C48       -77.8174   25.1092  -70.5626 C.3       11 UNK         0.0225 
     49 N         -77.0316   23.4485  -74.7845 N.am      5 UNK        -0.4615 
     50 C         -76.7581   22.1925  -75.1591 C.2       4 UNK         0.5053 
     51 O         -75.6203   21.7235  -75.1857 O.2       4 UNK        -0.5105 
     52 CA        -77.9448   21.2971  -75.5660 C.3       4 UNK         0.0263 
     53 CB        -78.3249   20.3623  -74.4061 C.3       4 UNK        -0.1981 
     54 N         -79.1326   22.0502  -75.9780 N.am      4 UNK        -0.4224 
     55 C         -79.2547   22.7027  -77.1425 C.2       3 UNK         0.4895 
     56 O         -78.3988   22.6902  -78.0267 O.2       3 UNK        -0.5091 
     57 CA        -80.5266   23.5526  -77.3323 C.3       3 UNK         0.0250 
     58 CB        -81.6451   22.7125  -77.9695 C.3       3 UNK        -0.1996 
     59 N         -81.0254   24.1807  -76.0990 N.am      3 UNK        -0.4254 
     60 C         -80.3119   25.0169  -75.3321 C.2       2 UNK         0.5004 
     61 O         -79.1343   25.3003  -75.5560 O.2       2 UNK        -0.5226 
     62 CA        -80.9936   25.5680  -74.0684 C.3       2 UNK         0.0269 
     63 CB        -80.9494   24.5164  -72.9477 C.3       2 UNK        -0.1926 
     64 N         -80.3147   26.7851  -73.6121 N.am      2 UNK        -0.4687 
     65 C         -80.4529   27.9766  -74.2077 C.2       1 UNK         0.5165 
     66 O         -81.3050   28.2119  -75.0700 O.2       1 UNK        -0.5079 
     67 H67       -78.4766   30.4748  -77.3994 H         1 UNK         0.0900 
     68 H68       -77.5019   29.0693  -77.8200 H         1 UNK         0.0900 
     69 H69       -76.7493   30.4676  -77.0471 H         1 UNK         0.0900 
     70 H70       -79.5494   30.3908  -75.4401 H         1 UNK         0.2959 
     71 H71       -78.6428   28.6439  -73.2347 H         1 UNK         0.1079 
     72 H72       -80.9318   30.6698  -73.4325 H         1 UNK         0.0837 
     73 H73       -79.3909   30.9588  -72.6813 H         1 UNK         0.0837 
     74 H74       -79.0731   30.9106  -70.3101 H         1 UNK         0.0685 
     75 H75       -79.8540   29.8830  -69.1350 H         1 UNK         0.0685 
     76 H76       -79.5697   27.1705  -70.4758 H         1 UNK         0.1434 
     77 H77       -75.3752   26.3361  -70.1917 H         1 UNK         0.1329 
     78 H78       -76.7797   30.3708  -69.8817 H         1 UNK         0.1335 
     79 H79       -73.9361   28.1111  -69.2678 H         1 UNK         0.0680 
     80 H80       -74.4608   29.7705  -69.2078 H         1 UNK         0.0680 
     81 H81       -73.5779   31.4056  -72.2738 H         1 UNK         0.1032 
     82 H82       -74.7788   31.2520  -71.0334 H         1 UNK         0.1032 
     83 H83       -76.1879   29.8526  -72.6395 H         1 UNK         0.0461 
     84 H84       -76.1378   31.9559  -75.2035 H         1 UNK         0.3453 
     85 H85       -77.1300   33.1984  -74.4823 H         1 UNK         0.3453 
     86 H86       -75.4299   29.1156  -74.5153 H         1 UNK         0.2984 
     87 H87       -74.6940   29.2680  -76.7115 H         1 UNK         0.0554 
     88 H88       -72.8525   29.7229  -78.3086 H         1 UNK         0.0847 
     89 H89       -72.0485   30.7559  -77.1273 H         1 UNK         0.0847 
     90 H90       -73.6121   31.2157  -77.7779 H         1 UNK         0.0847 
     91 H91       -73.5840   27.5404  -75.9358 H         1 UNK         0.3141 
     92 H92       -70.1994   26.8150  -75.3002 H         1 UNK         0.0743 
     93 H93       -72.6694   26.4622  -73.5114 H         1 UNK         0.0784 
     94 H94       -71.2423   25.4253  -73.5016 H         1 UNK         0.0784 
     95 H95       -71.1150   27.1097  -73.0192 H         1 UNK         0.0784 
     96 H96       -72.8167   25.5377  -75.8406 H         1 UNK         0.3213 
     97 H97       -72.0645   24.9255  -79.2503 H         1 UNK         0.0855 
     98 H98       -72.1470   22.8667  -76.9749 H         1 UNK         0.0814 
     99 H99       -70.8645   23.0195  -78.1675 H         1 UNK         0.0814 
    100 H100      -72.4751   22.5440  -78.6781 H         1 UNK         0.0814 
    101 H101      -74.2118   24.1341  -77.4858 H         1 UNK         0.3105 
    102 H102      -76.0438   27.0926  -77.5756 H         1 UNK         0.0547 
    103 H103      -76.7519   24.6461  -79.2796 H         1 UNK         0.0837 
    104 H104      -77.8880   25.8467  -78.6652 H         1 UNK         0.0837 
    105 H105      -76.6836   26.3057  -79.8587 H         1 UNK         0.0837 
    106 H106      -76.9660   24.6087  -76.7398 H         1 UNK         0.3020 
    107 H107      -75.1375   23.9013  -74.0061 H         1 UNK         0.1245 
    108 H108      -75.8921   26.0829  -72.9007 H         1 UNK         0.0781 
    109 H109      -77.5350   25.6770  -73.3324 H         1 UNK         0.0781 
    110 H110      -78.8189   24.9797  -70.9700 H         1 UNK         0.0836 
    111 H111      -77.8283   24.6380  -69.5791 H         1 UNK         0.0836 
    112 H112      -77.9778   23.8021  -74.8678 H         1 UNK         0.3022 
    113 H113      -77.6178   20.6825  -76.4076 H         1 UNK         0.0747 
    114 H114      -79.1179   19.6722  -74.6948 H         1 UNK         0.0793 
    115 H115      -77.4706   19.7591  -74.0953 H         1 UNK         0.0793 
    116 H116      -78.6641   20.9200  -73.5319 H         1 UNK         0.0793 
    117 H117      -79.8898   22.1103  -75.3130 H         1 UNK         0.3047 
    118 H118      -80.2709   24.3586  -78.0236 H         1 UNK         0.0822 
    119 H119      -82.5131   23.3255  -78.2132 H         1 UNK         0.0807 
    120 H120      -81.9745   21.9090  -77.3095 H         1 UNK         0.0807 
    121 H121      -81.3061   22.2523  -78.8989 H         1 UNK         0.0807 
    122 H122      -81.9812   23.9763  -75.8429 H         1 UNK         0.2946 
    123 H123      -82.0350   25.8058  -74.2984 H         1 UNK         0.1144 
    124 H124      -81.3159   24.9207  -72.0038 H         1 UNK         0.0793 
    125 H125      -79.9393   24.1382  -72.7877 H         1 UNK         0.0793 
    126 H126      -81.5768   23.6588  -73.1937 H         1 UNK         0.0793 
    127 H127      -79.5707   26.6617  -72.9430 H         1 UNK         0.2896 
@<TRIPOS>BOND
     1    1    2 1    
     2    1   67 1    
     3    1   68 1    
     4    1   69 1    
     5    2    3 2    
     6    2    4 am   BACKBONE|DICT|INTERRES
     7    4    5 1    
     8    4   70 1    
     9    5    6 1    
    10    5   65 1    
    11    5   71 1    
    12    6    7 1    
    13    6   72 1    
    14    6   73 1    
    15    7    8 1    
    16    8    9 1    
    17    8   74 1    
    18    8   75 1    
    19    9   10 ar   
    20    9   14 ar   
    21   10   11 ar   
    22   10   76 1    
    23   11   12 ar   
    24   11   48 1    
    25   12   13 ar   
    26   12   77 1    
    27   13   14 ar   
    28   13   15 1    
    29   14   78 1    
    30   15   16 1    
    31   15   79 1    
    32   15   80 1    
    33   16   17 1    
    34   17   18 1    
    35   17   81 1    
    36   17   82 1    
    37   18   19 1    
    38   18   22 1    
    39   18   83 1    
    40   19   20 am   BACKBONE|DICT|INTERRES
    41   19   21 2    
    42   20   84 1    
    43   20   85 1    
    44   22   23 am   BACKBONE|DICT|INTERRES
    45   22   86 1    
    46   23   24 2    
    47   23   25 1    
    48   25   26 1    
    49   25   27 1    
    50   25   87 1    
    51   26   88 1    
    52   26   89 1    
    53   26   90 1    
    54   27   28 am   BACKBONE|DICT|INTERRES
    55   27   91 1    
    56   28   29 2    
    57   28   30 1    
    58   30   31 1    
    59   30   32 1    
    60   30   92 1    
    61   31   93 1    
    62   31   94 1    
    63   31   95 1    
    64   32   33 am   BACKBONE|DICT|INTERRES
    65   32   96 1    
    66   33   34 2    
    67   33   35 1    
    68   35   36 1    
    69   35   37 1    
    70   35   97 1    
    71   36   98 1    
    72   36   99 1    
    73   36  100 1    
    74   37   38 am   BACKBONE|DICT|INTERRES
    75   37  101 1    
    76   38   39 2    
    77   38   40 1    
    78   40   41 1    
    79   40   42 1    
    80   40  102 1    
    81   41  103 1    
    82   41  104 1    
    83   41  105 1    
    84   42   43 am   BACKBONE|DICT|INTERRES
    85   42  106 1    
    86   43   44 2    
    87   43   45 1    
    88   45   46 1    
    89   45   49 1    
    90   45  107 1    
    91   46   47 1    
    92   46  108 1    
    93   46  109 1    
    94   47   48 1    
    95   48  110 1    
    96   48  111 1    
    97   49   50 am   BACKBONE|DICT|INTERRES
    98   49  112 1    
    99   50   51 2    
   100   50   52 1    
   101   52   53 1    
   102   52   54 1    
   103   52  113 1    
   104   53  114 1    
   105   53  115 1    
   106   53  116 1    
   107   54   55 am   BACKBONE|DICT|INTERRES
   108   54  117 1    
   109   55   56 2    
   110   55   57 1    
   111   57   58 1    
   112   57   59 1    
   113   57  118 1    
   114   58  119 1    
   115   58  120 1    
   116   58  121 1    
   117   59   60 am   BACKBONE|DICT|INTERRES
   118   59  122 1    
   119   60   61 2    
   120   60   62 1    
   121   62   63 1    
   122   62   64 1    
   123   62  123 1    
   124   63  124 1    
   125   63  125 1    
   126   63  126 1    
   127   64   65 am   BACKBONE|DICT|INTERRES
   128   64  127 1    
   129   65   66 2    
@<TRIPOS>SUBSTRUCTURE
     1 UNK         1 GROUP             0       ****    0 ROOT    
