@<TRIPOS>MOLECULE
3R135
127   129    1
SMALL
USER_CHARGES


@<TRIPOS>ATOM
      1 CA        -84.7436   29.5291  -74.0257 C.3       0 UNK        -0.1998 
      2 C         -83.8759   28.3517  -73.6058 C.2       0 UNK         0.4909 
      3 O         -84.4030   27.3488  -73.1228 O.2       0 UNK        -0.5240 
      4 N         -82.5526   28.4744  -73.7819 N.am      1 UNK        -0.4739 
      5 CA        -81.5429   27.4436  -73.5036 C.3       1 UNK         0.0864 
      6 C6        -81.5072   27.0222  -72.0006 C.3       11 UNK        -0.0881 
      7 S7        -79.8491   26.5376  -71.3907 S.3       11 UNK        -0.2682 
      8 C8        -79.4658   27.8187  -70.1362 C.3       11 UNK         0.0289 
      9 C9        -78.6184   28.9563  -70.6983 C.ar      11 UNK        -0.0687 
     10 C10       -79.0436   29.6487  -71.8323 C.ar      11 UNK        -0.0823 
     11 C11       -78.2281   30.6069  -72.4339 C.ar      11 UNK        -0.0830 
     12 C12       -77.0301   30.9721  -71.8180 C.ar      11 UNK        -0.1021 
     13 C13       -76.6186   30.3405  -70.6401 C.ar      11 UNK        -0.0753 
     14 C14       -77.4047   29.3152  -70.0977 C.ar      11 UNK        -0.0933 
     15 C15       -75.3356   30.7880  -69.9518 C.3       11 UNK         0.0166 
     16 S16       -73.8630   30.5511  -70.9965 S.3       11 UNK        -0.2615 
     17 C17       -73.5933   28.7610  -70.8048 C.3       11 UNK        -0.0865 
     18 CA        -72.3907   28.2564  -71.6428 C.3       10 UNK         0.0862 
     19 C         -72.0126   26.8147  -71.2083 C.2       10 UNK         0.5551 
     20 N         -72.4466   25.7770  -71.9131 N.am      10 UNK        -0.7319 
     21 O         -71.3106   26.6378  -70.2158 O.2       10 UNK        -0.5018 
     22 N         -72.6619   28.3465  -73.0851 N.am      10 UNK        -0.4509 
     23 C         -71.9286   29.0030  -73.9881 C.2       10 UNK         0.4899 
     24 O         -70.9613   29.7148  -73.7101 O.2       10 UNK        -0.4839 
     25 CA        -72.3520   28.8008  -75.4587 C.3       9 UNK         0.0222 
     26 CB        -71.4910   29.6083  -76.4527 C.3       9 UNK        -0.1966 
     27 N         -72.3967   27.3828  -75.8480 N.am      9 UNK        -0.4218 
     28 C         -71.3951   26.4905  -75.7782 C.2       9 UNK         0.5020 
     29 O         -70.2546   26.7596  -75.3983 O.2       9 UNK        -0.5274 
     30 CA        -71.7016   25.0417  -76.1981 C.3       8 UNK         0.0270 
     31 CB        -71.9822   24.1649  -74.9700 C.3       8 UNK        -0.1976 
     32 N         -72.8096   24.9074  -77.1486 N.am      8 UNK        -0.4313 
     33 C         -72.6904   25.1399  -78.4626 C.2       8 UNK         0.5041 
     34 O         -71.6737   25.5966  -78.9872 O.2       8 UNK        -0.5577 
     35 CA        -73.8906   24.7839  -79.3471 C.3       7 UNK         0.0284 
     36 CB        -74.0715   23.2586  -79.4493 C.3       7 UNK        -0.1958 
     37 N         -75.1209   25.3950  -78.8432 N.am      7 UNK        -0.4454 
     38 C         -75.8768   26.2500  -79.5429 C.2       7 UNK         0.5089 
     39 O         -75.6214   26.6098  -80.6932 O.2       7 UNK        -0.5125 
     40 CA        -77.1451   26.8002  -78.8693 C.3       6 UNK         0.0408 
     41 CB        -78.3806   25.9904  -79.2936 C.3       6 UNK        -0.1791 
     42 N         -77.0962   26.8772  -77.4073 N.am      6 UNK        -0.4762 
     43 C         -76.3088   27.7153  -76.7156 C.2       6 UNK         0.5007 
     44 O         -75.3820   28.3557  -77.2108 O.2       6 UNK        -0.5032 
     45 CA        -76.6275   27.8708  -75.2196 C.3       5 UNK         0.0783 
     46 C46       -77.9330   28.6818  -75.0122 C.3       11 UNK        -0.0857 
     47 S47       -77.6501   30.4868  -75.1488 S.3       11 UNK        -0.2512 
     48 C48       -78.6240   31.1998  -73.7766 C.3       11 UNK         0.0225 
     49 N         -76.6913   26.5500  -74.5919 N.am      5 UNK        -0.4615 
     50 C         -75.6609   25.9660  -73.9665 C.2       4 UNK         0.5053 
     51 O         -74.5765   26.5120  -73.7765 O.2       4 UNK        -0.5105 
     52 CA        -75.8357   24.5063  -73.5124 C.3       4 UNK         0.0263 
     53 CB        -76.4820   24.4559  -72.1202 C.3       4 UNK        -0.1981 
     54 N         -76.6154   23.6954  -74.4471 N.am      4 UNK        -0.4224 
     55 C         -76.3605   23.5460  -75.7559 C.2       3 UNK         0.4895 
     56 O         -75.3552   23.9855  -76.3169 O.2       3 UNK        -0.5091 
     57 CA        -77.4483   22.8556  -76.5994 C.3       3 UNK         0.0250 
     58 CB        -77.0986   21.3750  -76.8111 C.3       3 UNK        -0.1996 
     59 N         -78.8051   22.9652  -76.0408 N.am      3 UNK        -0.4254 
     60 C         -79.4379   24.1084  -75.7310 C.2       2 UNK         0.5004 
     61 O         -78.9467   25.2249  -75.9294 O.2       2 UNK        -0.5226 
     62 CA        -80.8076   23.9833  -75.0327 C.3       2 UNK         0.0269 
     63 CB        -80.9489   22.6965  -74.1938 C.3       2 UNK        -0.1926 
     64 N         -81.0221   25.1330  -74.1523 N.am      2 UNK        -0.4687 
     65 C         -81.6238   26.2720  -74.5106 C.2       1 UNK         0.5165 
     66 O         -82.1780   26.4319  -75.6022 O.2       1 UNK        -0.5079 
     67 H67       -85.4474   29.2189  -74.7976 H         1 UNK         0.0900 
     68 H68       -85.3132   29.8981  -73.1732 H         1 UNK         0.0900 
     69 H69       -84.1505   30.3543  -74.4196 H         1 UNK         0.0900 
     70 H70       -82.2006   29.3115  -74.2249 H         1 UNK         0.2959 
     71 H71       -80.5937   27.9161  -73.7473 H         1 UNK         0.1079 
     72 H72       -81.8643   27.8471  -71.3831 H         1 UNK         0.0837 
     73 H73       -82.2078   26.2075  -71.8072 H         1 UNK         0.0837 
     74 H74       -80.3805   28.2218  -69.7006 H         1 UNK         0.0685 
     75 H75       -78.9343   27.3302  -69.3182 H         1 UNK         0.0685 
     76 H76       -79.9900   29.4004  -72.2825 H         1 UNK         0.1434 
     77 H77       -76.4057   31.7330  -72.2666 H         1 UNK         0.1329 
     78 H78       -77.0764   28.8041  -69.2030 H         1 UNK         0.1335 
     79 H79       -75.1961   30.2707  -69.0013 H         1 UNK         0.0680 
     80 H80       -75.4228   31.8484  -69.7113 H         1 UNK         0.0680 
     81 H81       -73.4339   28.5642  -69.7425 H         1 UNK         0.1032 
     82 H82       -74.5053   28.2290  -71.0842 H         1 UNK         0.1032 
     83 H83       -71.5279   28.8780  -71.3955 H         1 UNK         0.0461 
     84 H84       -72.1934   24.8459  -71.6252 H         1 UNK         0.3453 
     85 H85       -73.0745   25.9223  -72.6934 H         1 UNK         0.3453 
     86 H86       -73.4188   27.7511  -73.4178 H         1 UNK         0.2984 
     87 H87       -73.3739   29.1743  -75.5345 H         1 UNK         0.0554 
     88 H88       -71.5247   30.6736  -76.2219 H         1 UNK         0.0847 
     89 H89       -71.8499   29.4868  -77.4748 H         1 UNK         0.0847 
     90 H90       -70.4446   29.3024  -76.4258 H         1 UNK         0.0847 
     91 H91       -73.2959   27.0474  -76.1631 H         1 UNK         0.3141 
     92 H92       -70.7984   24.6531  -76.6742 H         1 UNK         0.0743 
     93 H93       -71.1645   24.2241  -74.2502 H         1 UNK         0.0784 
     94 H94       -72.8897   24.4784  -74.4606 H         1 UNK         0.0784 
     95 H95       -72.0973   23.1168  -75.2466 H         1 UNK         0.0784 
     96 H96       -73.6822   24.5191  -76.7928 H         1 UNK         0.3213 
     97 H97       -73.6617   25.1528  -80.3493 H         1 UNK         0.0855 
     98 H98       -74.2990   22.8046  -78.4847 H         1 UNK         0.0814 
     99 H99       -73.1648   22.7839  -79.8265 H         1 UNK         0.0814 
    100 H100      -74.8793   23.0036  -80.1352 H         1 UNK         0.0814 
    101 H101      -75.3968   25.1517  -77.8975 H         1 UNK         0.3105 
    102 H102      -77.2795   27.8197  -79.2373 H         1 UNK         0.0547 
    103 H103      -79.2975   26.4279  -78.8980 H         1 UNK         0.0837 
    104 H104      -78.4773   25.9662  -80.3799 H         1 UNK         0.0837 
    105 H105      -78.3291   24.9584  -78.9500 H         1 UNK         0.0837 
    106 H106      -77.8104   26.3534  -76.9055 H         1 UNK         0.3020 
    107 H107      -75.8095   28.4359  -74.7658 H         1 UNK         0.1245 
    108 H108      -78.3228   28.4536  -74.0245 H         1 UNK         0.0781 
    109 H109      -78.7209   28.3848  -75.7075 H         1 UNK         0.0781 
    110 H110      -79.6858   31.0444  -73.9737 H         1 UNK         0.0836 
    111 H111      -78.4726   32.2800  -73.7569 H         1 UNK         0.0836 
    112 H112      -77.5290   26.0073  -74.7734 H         1 UNK         0.3022 
    113 H113      -74.8465   24.0545  -73.4386 H         1 UNK         0.0747 
    114 H114      -77.5005   24.8440  -72.1340 H         1 UNK         0.0793 
    115 H115      -76.5156   23.4372  -71.7337 H         1 UNK         0.0793 
    116 H116      -75.9153   25.0537  -71.4044 H         1 UNK         0.0793 
    117 H117      -77.4616   23.2825  -74.0853 H         1 UNK         0.3047 
    118 H118      -77.4521   23.3440  -77.5742 H         1 UNK         0.0822 
    119 H119      -76.1036   21.2666  -77.2457 H         1 UNK         0.0807 
    120 H120      -77.8000   20.8946  -77.4935 H         1 UNK         0.0807 
    121 H121      -77.1065   20.8187  -75.8729 H         1 UNK         0.0807 
    122 H122      -79.2770   22.0939  -75.8449 H         1 UNK         0.2946 
    123 H123      -81.5682   23.9676  -75.8167 H         1 UNK         0.1144 
    124 H124      -81.8967   22.6844  -73.6547 H         1 UNK         0.0793 
    125 H125      -80.1508   22.5999  -73.4563 H         1 UNK         0.0793 
    126 H126      -80.9376   21.8035  -74.8197 H         1 UNK         0.0793 
    127 H127      -80.5572   25.1103  -73.2540 H         1 UNK         0.2896 
@<TRIPOS>BOND
     1    1    2 1    
     2    1   67 1    
     3    1   68 1    
     4    1   69 1    
     5    2    3 2    
     6    2    4 am   BACKBONE|DICT|INTERRES
     7    4    5 1    
     8    4   70 1    
     9    5    6 1    
    10    5   65 1    
    11    5   71 1    
    12    6    7 1    
    13    6   72 1    
    14    6   73 1    
    15    7    8 1    
    16    8    9 1    
    17    8   74 1    
    18    8   75 1    
    19    9   10 ar   
    20    9   14 ar   
    21   10   11 ar   
    22   10   76 1    
    23   11   12 ar   
    24   11   48 1    
    25   12   13 ar   
    26   12   77 1    
    27   13   14 ar   
    28   13   15 1    
    29   14   78 1    
    30   15   16 1    
    31   15   79 1    
    32   15   80 1    
    33   16   17 1    
    34   17   18 1    
    35   17   81 1    
    36   17   82 1    
    37   18   19 1    
    38   18   22 1    
    39   18   83 1    
    40   19   20 am   BACKBONE|DICT|INTERRES
    41   19   21 2    
    42   20   84 1    
    43   20   85 1    
    44   22   23 am   BACKBONE|DICT|INTERRES
    45   22   86 1    
    46   23   24 2    
    47   23   25 1    
    48   25   26 1    
    49   25   27 1    
    50   25   87 1    
    51   26   88 1    
    52   26   89 1    
    53   26   90 1    
    54   27   28 am   BACKBONE|DICT|INTERRES
    55   27   91 1    
    56   28   29 2    
    57   28   30 1    
    58   30   31 1    
    59   30   32 1    
    60   30   92 1    
    61   31   93 1    
    62   31   94 1    
    63   31   95 1    
    64   32   33 am   BACKBONE|DICT|INTERRES
    65   32   96 1    
    66   33   34 2    
    67   33   35 1    
    68   35   36 1    
    69   35   37 1    
    70   35   97 1    
    71   36   98 1    
    72   36   99 1    
    73   36  100 1    
    74   37   38 am   BACKBONE|DICT|INTERRES
    75   37  101 1    
    76   38   39 2    
    77   38   40 1    
    78   40   41 1    
    79   40   42 1    
    80   40  102 1    
    81   41  103 1    
    82   41  104 1    
    83   41  105 1    
    84   42   43 am   BACKBONE|DICT|INTERRES
    85   42  106 1    
    86   43   44 2    
    87   43   45 1    
    88   45   46 1    
    89   45   49 1    
    90   45  107 1    
    91   46   47 1    
    92   46  108 1    
    93   46  109 1    
    94   47   48 1    
    95   48  110 1    
    96   48  111 1    
    97   49   50 am   BACKBONE|DICT|INTERRES
    98   49  112 1    
    99   50   51 2    
   100   50   52 1    
   101   52   53 1    
   102   52   54 1    
   103   52  113 1    
   104   53  114 1    
   105   53  115 1    
   106   53  116 1    
   107   54   55 am   BACKBONE|DICT|INTERRES
   108   54  117 1    
   109   55   56 2    
   110   55   57 1    
   111   57   58 1    
   112   57   59 1    
   113   57  118 1    
   114   58  119 1    
   115   58  120 1    
   116   58  121 1    
   117   59   60 am   BACKBONE|DICT|INTERRES
   118   59  122 1    
   119   60   61 2    
   120   60   62 1    
   121   62   63 1    
   122   62   64 1    
   123   62  123 1    
   124   63  124 1    
   125   63  125 1    
   126   63  126 1    
   127   64   65 am   BACKBONE|DICT|INTERRES
   128   64  127 1    
   129   65   66 2    
@<TRIPOS>SUBSTRUCTURE
     1 UNK         1 GROUP             0       ****    0 ROOT    
