@<TRIPOS>MOLECULE
3R135
127   129    1
SMALL
USER_CHARGES


@<TRIPOS>ATOM
      1 CA        -77.2641   26.8715  -72.1525 C.3       0 UNK        -0.1998 
      2 C         -78.5764   26.3901  -71.5540 C.2       0 UNK         0.4909 
      3 O         -78.6167   25.3114  -70.9623 O.2       0 UNK        -0.5240 
      4 N         -79.6545   27.1710  -71.7156 N.am      1 UNK        -0.4739 
      5 CA        -81.0121   26.8341  -71.2552 C.3       1 UNK         0.0864 
      6 C6        -81.9335   28.0789  -71.1709 C.3       11 UNK        -0.0881 
      7 S7        -81.4805   29.1794  -69.7851 S.3       11 UNK        -0.2682 
      8 C8        -81.1598   30.7669  -70.6163 C.3       11 UNK         0.0289 
      9 C9        -79.8317   30.7478  -71.3535 C.ar      11 UNK        -0.0687 
     10 C10       -79.7955   30.5231  -72.7320 C.ar      11 UNK        -0.0823 
     11 C11       -78.5726   30.4452  -73.4025 C.ar      11 UNK        -0.0830 
     12 C12       -77.3841   30.6412  -72.6956 C.ar      11 UNK        -0.1021 
     13 C13       -77.4092   30.8699  -71.3173 C.ar      11 UNK        -0.0753 
     14 C14       -78.6359   30.9261  -70.6501 C.ar      11 UNK        -0.0933 
     15 C15       -76.1022   31.0001  -70.5545 C.3       11 UNK         0.0166 
     16 S16       -75.3809   29.3516  -70.2894 S.3       11 UNK        -0.2615 
     17 C17       -73.5997   29.7042  -70.0956 C.3       11 UNK        -0.0865 
     18 CA        -72.8879   30.3131  -71.3479 C.3       10 UNK         0.0862 
     19 C         -71.3396   30.4275  -71.1916 C.2       10 UNK         0.5551 
     20 N         -70.8276   30.6202  -69.9823 N.am      10 UNK        -0.7319 
     21 O         -70.5907   30.4029  -72.1662 O.2       10 UNK        -0.5018 
     22 N         -73.2970   29.7096  -72.6293 N.am      10 UNK        -0.4509 
     23 C         -73.1277   28.4358  -73.0081 C.2       10 UNK         0.4899 
     24 O         -72.6525   27.5595  -72.2820 O.2       10 UNK        -0.4839 
     25 CA        -73.6082   28.0637  -74.4311 C.3       9 UNK         0.0222 
     26 CB        -73.8031   29.2759  -75.3717 C.3       9 UNK        -0.1966 
     27 N         -72.7541   27.0546  -75.0707 N.am      9 UNK        -0.4218 
     28 C         -71.4335   27.1444  -75.2993 C.2       9 UNK         0.5020 
     29 O         -70.7578   28.1487  -75.0705 O.2       9 UNK        -0.5274 
     30 CA        -70.7265   25.9013  -75.8687 C.3       8 UNK         0.0270 
     31 CB        -70.1612   25.0407  -74.7264 C.3       8 UNK        -0.1976 
     32 N         -71.5693   25.0653  -76.7263 N.am      8 UNK        -0.4313 
     33 C         -71.9853   25.4018  -77.9541 C.2       8 UNK         0.5041 
     34 O         -71.7335   26.4851  -78.4850 O.2       8 UNK        -0.5577 
     35 CA        -72.7954   24.3564  -78.7392 C.3       7 UNK         0.0284 
     36 CB        -72.9624   23.0021  -78.0173 C.3       7 UNK        -0.1958 
     37 N         -74.1155   24.9111  -79.0140 N.am      7 UNK        -0.4454 
     38 C         -74.5730   25.2927  -80.2133 C.2       7 UNK         0.5089 
     39 O         -73.9323   25.1767  -81.2593 O.2       7 UNK        -0.5125 
     40 CA        -75.9931   25.8900  -80.2735 C.3       6 UNK         0.0408 
     41 CB        -76.9301   24.9793  -81.0847 C.3       6 UNK        -0.1791 
     42 N         -76.5722   26.1095  -78.9445 N.am      6 UNK        -0.4762 
     43 C         -76.3617   27.2051  -78.1983 C.2       6 UNK         0.5007 
     44 O         -75.7185   28.1785  -78.5903 O.2       6 UNK        -0.5032 
     45 CA        -76.9463   27.2222  -76.7694 C.3       5 UNK         0.0783 
     46 C46       -78.2852   27.9979  -76.7588 C.3       11 UNK        -0.0857 
     47 S47       -78.8688   28.3016  -75.0636 S.3       11 UNK        -0.2512 
     48 C48       -78.5334   30.0777  -74.8740 C.3       11 UNK         0.0225 
     49 N         -77.0800   25.8798  -76.1861 N.am      5 UNK        -0.4615 
     50 C         -76.0647   25.0330  -75.9533 C.2       4 UNK         0.5053 
     51 O         -74.8818   25.3341  -76.1125 O.2       4 UNK        -0.5105 
     52 CA        -76.4059   23.5908  -75.5288 C.3       4 UNK         0.0263 
     53 CB        -76.2150   23.4196  -74.0137 C.3       4 UNK        -0.1981 
     54 N         -77.7549   23.1515  -75.8973 N.am      4 UNK        -0.4224 
     55 C         -78.2735   23.1444  -77.1351 C.2       3 UNK         0.4895 
     56 O         -77.6235   23.4118  -78.1454 O.2       3 UNK        -0.5091 
     57 CA        -79.7835   22.8592  -77.2700 C.3       3 UNK         0.0250 
     58 CB        -80.0118   21.4300  -77.7871 C.3       3 UNK        -0.1996 
     59 N         -80.5691   23.0601  -76.0423 N.am      3 UNK        -0.4254 
     60 C         -80.6304   24.1905  -75.3214 C.2       2 UNK         0.5004 
     61 O         -80.0134   25.2159  -75.6197 O.2       2 UNK        -0.5226 
     62 CA        -81.4620   24.1500  -74.0287 C.3       2 UNK         0.0269 
     63 CB        -81.2586   22.8248  -73.2535 C.3       2 UNK        -0.1926 
     64 N         -81.0780   25.2917  -73.1974 N.am      2 UNK        -0.4687 
     65 C         -81.6777   25.6987  -72.0713 C.2       1 UNK         0.5165 
     66 O         -82.7215   25.1976  -71.6489 O.2       1 UNK        -0.5079 
     67 H67       -76.4310   26.6278  -71.4937 H         1 UNK         0.0900 
     68 H68       -77.2674   27.9487  -72.3017 H         1 UNK         0.0900 
     69 H69       -77.0900   26.3973  -73.1172 H         1 UNK         0.0900 
     70 H70       -79.5575   28.0564  -72.1946 H         1 UNK         0.2959 
     71 H71       -80.9166   26.4301  -70.2446 H         1 UNK         0.1079 
     72 H72       -81.9357   28.6230  -72.1159 H         1 UNK         0.0837 
     73 H73       -82.9708   27.7850  -70.9975 H         1 UNK         0.0837 
     74 H74       -81.9820   31.0023  -71.2940 H         1 UNK         0.0685 
     75 H75       -81.1464   31.5597  -69.8670 H         1 UNK         0.0685 
     76 H76       -80.7151   30.3682  -73.2800 H         1 UNK         0.1434 
     77 H77       -76.4336   30.5663  -73.2055 H         1 UNK         0.1329 
     78 H78       -78.6612   31.0816  -69.5801 H         1 UNK         0.1335 
     79 H79       -75.4239   31.6349  -71.1232 H         1 UNK         0.0680 
     80 H80       -76.2550   31.4898  -69.5916 H         1 UNK         0.0680 
     81 H81       -73.1187   28.7642  -69.8189 H         1 UNK         0.1032 
     82 H82       -73.4862   30.3647  -69.2348 H         1 UNK         0.1032 
     83 H83       -73.2104   31.3506  -71.4271 H         1 UNK         0.0461 
     84 H84       -69.8283   30.7161  -69.8881 H         1 UNK         0.3453 
     85 H85       -71.4122   30.6765  -69.1640 H         1 UNK         0.3453 
     86 H86       -73.6591   30.3582  -73.3113 H         1 UNK         0.2984 
     87 H87       -74.5808   27.5875  -74.3005 H         1 UNK         0.0554 
     88 H88       -74.0598   28.9530  -76.3808 H         1 UNK         0.0847 
     89 H89       -72.8981   29.8805  -75.4471 H         1 UNK         0.0847 
     90 H90       -74.6126   29.9223  -75.0317 H         1 UNK         0.0847 
     91 H91       -73.2312   26.1988  -75.3366 H         1 UNK         0.3141 
     92 H92       -69.8866   26.2543  -76.4714 H         1 UNK         0.0743 
     93 H93       -70.9535   24.6377  -74.0940 H         1 UNK         0.0784 
     94 H94       -69.5754   24.2046  -75.1091 H         1 UNK         0.0784 
     95 H95       -69.5025   25.6287  -74.0855 H         1 UNK         0.0784 
     96 H96       -71.8335   24.1609  -76.3635 H         1 UNK         0.3213 
     97 H97       -72.2541   24.1744  -79.6700 H         1 UNK         0.0855 
     98 H98       -73.4827   23.1009  -77.0645 H         1 UNK         0.0814 
     99 H99       -71.9965   22.5315  -77.8287 H         1 UNK         0.0814 
    100 H100      -73.5367   22.3062  -78.6294 H         1 UNK         0.0814 
    101 H101      -74.6789   25.1173  -78.1979 H         1 UNK         0.3105 
    102 H102      -75.9231   26.8460  -80.7965 H         1 UNK         0.0547 
    103 H103      -76.5751   24.8699  -82.1102 H         1 UNK         0.0837 
    104 H104      -76.9930   23.9784  -80.6569 H         1 UNK         0.0837 
    105 H105      -77.9392   25.3882  -81.1345 H         1 UNK         0.0837 
    106 H106      -77.0845   25.3268  -78.5474 H         1 UNK         0.3020 
    107 H107      -76.2319   27.7699  -76.1530 H         1 UNK         0.1245 
    108 H108      -79.0567   27.4371  -77.2901 H         1 UNK         0.0781 
    109 H109      -78.1933   28.9540  -77.2786 H         1 UNK         0.0781 
    110 H110      -79.2741   30.6552  -75.4291 H         1 UNK         0.0836 
    111 H111      -77.5590   30.3184  -75.3022 H         1 UNK         0.0836 
    112 H112      -78.0319   25.5737  -76.0064 H         1 UNK         0.3022 
    113 H113      -75.7014   22.9328  -76.0404 H         1 UNK         0.0747 
    114 H114      -76.3006   22.3732  -73.7203 H         1 UNK         0.0793 
    115 H115      -75.2270   23.7609  -73.7004 H         1 UNK         0.0793 
    116 H116      -76.9527   23.9870  -73.4453 H         1 UNK         0.0793 
    117 H117      -78.3725   22.9166  -75.1351 H         1 UNK         0.3047 
    118 H118      -80.1684   23.5583  -78.0153 H         1 UNK         0.0822 
    119 H119      -81.0655   21.2464  -77.9983 H         1 UNK         0.0807 
    120 H120      -79.6764   20.6818  -77.0677 H         1 UNK         0.0807 
    121 H121      -79.4643   21.2577  -78.7152 H         1 UNK         0.0807 
    122 H122      -81.0991   22.2627  -75.7210 H         1 UNK         0.2946 
    123 H123      -82.5129   24.2568  -74.3054 H         1 UNK         0.1144 
    124 H124      -81.5939   21.9617  -73.8289 H         1 UNK         0.0793 
    125 H125      -81.8273   22.8059  -72.3243 H         1 UNK         0.0793 
    126 H126      -80.2098   22.6671  -72.9980 H         1 UNK         0.0793 
    127 H127      -80.2687   25.7984  -73.5362 H         1 UNK         0.2896 
@<TRIPOS>BOND
     1    1    2 1    
     2    1   67 1    
     3    1   68 1    
     4    1   69 1    
     5    2    3 2    
     6    2    4 am   BACKBONE|DICT|INTERRES
     7    4    5 1    
     8    4   70 1    
     9    5    6 1    
    10    5   65 1    
    11    5   71 1    
    12    6    7 1    
    13    6   72 1    
    14    6   73 1    
    15    7    8 1    
    16    8    9 1    
    17    8   74 1    
    18    8   75 1    
    19    9   10 ar   
    20    9   14 ar   
    21   10   11 ar   
    22   10   76 1    
    23   11   12 ar   
    24   11   48 1    
    25   12   13 ar   
    26   12   77 1    
    27   13   14 ar   
    28   13   15 1    
    29   14   78 1    
    30   15   16 1    
    31   15   79 1    
    32   15   80 1    
    33   16   17 1    
    34   17   18 1    
    35   17   81 1    
    36   17   82 1    
    37   18   19 1    
    38   18   22 1    
    39   18   83 1    
    40   19   20 am   BACKBONE|DICT|INTERRES
    41   19   21 2    
    42   20   84 1    
    43   20   85 1    
    44   22   23 am   BACKBONE|DICT|INTERRES
    45   22   86 1    
    46   23   24 2    
    47   23   25 1    
    48   25   26 1    
    49   25   27 1    
    50   25   87 1    
    51   26   88 1    
    52   26   89 1    
    53   26   90 1    
    54   27   28 am   BACKBONE|DICT|INTERRES
    55   27   91 1    
    56   28   29 2    
    57   28   30 1    
    58   30   31 1    
    59   30   32 1    
    60   30   92 1    
    61   31   93 1    
    62   31   94 1    
    63   31   95 1    
    64   32   33 am   BACKBONE|DICT|INTERRES
    65   32   96 1    
    66   33   34 2    
    67   33   35 1    
    68   35   36 1    
    69   35   37 1    
    70   35   97 1    
    71   36   98 1    
    72   36   99 1    
    73   36  100 1    
    74   37   38 am   BACKBONE|DICT|INTERRES
    75   37  101 1    
    76   38   39 2    
    77   38   40 1    
    78   40   41 1    
    79   40   42 1    
    80   40  102 1    
    81   41  103 1    
    82   41  104 1    
    83   41  105 1    
    84   42   43 am   BACKBONE|DICT|INTERRES
    85   42  106 1    
    86   43   44 2    
    87   43   45 1    
    88   45   46 1    
    89   45   49 1    
    90   45  107 1    
    91   46   47 1    
    92   46  108 1    
    93   46  109 1    
    94   47   48 1    
    95   48  110 1    
    96   48  111 1    
    97   49   50 am   BACKBONE|DICT|INTERRES
    98   49  112 1    
    99   50   51 2    
   100   50   52 1    
   101   52   53 1    
   102   52   54 1    
   103   52  113 1    
   104   53  114 1    
   105   53  115 1    
   106   53  116 1    
   107   54   55 am   BACKBONE|DICT|INTERRES
   108   54  117 1    
   109   55   56 2    
   110   55   57 1    
   111   57   58 1    
   112   57   59 1    
   113   57  118 1    
   114   58  119 1    
   115   58  120 1    
   116   58  121 1    
   117   59   60 am   BACKBONE|DICT|INTERRES
   118   59  122 1    
   119   60   61 2    
   120   60   62 1    
   121   62   63 1    
   122   62   64 1    
   123   62  123 1    
   124   63  124 1    
   125   63  125 1    
   126   63  126 1    
   127   64   65 am   BACKBONE|DICT|INTERRES
   128   64  127 1    
   129   65   66 2    
@<TRIPOS>SUBSTRUCTURE
     1 UNK         1 GROUP             0       ****    0 ROOT    
