@<TRIPOS>MOLECULE
3R135
127   129    1
SMALL
USER_CHARGES


@<TRIPOS>ATOM
      1 CA        -80.6056   23.5623  -71.5328 C.3       0 UNK        -0.1998 
      2 C         -81.1178   24.3782  -72.7101 C.2       0 UNK         0.4909 
      3 O         -81.8555   23.8535  -73.5444 O.2       0 UNK        -0.5240 
      4 N         -80.7387   25.6610  -72.7770 N.am      1 UNK        -0.4739 
      5 CA        -81.1569   26.6164  -73.8103 C.3       1 UNK         0.0864 
      6 C6        -80.6568   28.0493  -73.5099 C.3       11 UNK        -0.0881 
      7 S7        -81.2313   28.6503  -71.8838 S.3       11 UNK        -0.2682 
      8 C8        -80.0849   30.0314  -71.5604 C.3       11 UNK         0.0289 
      9 C9        -78.6237   29.6016  -71.5876 C.ar      11 UNK        -0.0687 
     10 C10       -78.1636   28.5975  -70.7311 C.ar      11 UNK        -0.0823 
     11 C11       -76.8332   28.1713  -70.7843 C.ar      11 UNK        -0.0830 
     12 C12       -75.9519   28.7800  -71.6840 C.ar      11 UNK        -0.1021 
     13 C13       -76.3981   29.7942  -72.5367 C.ar      11 UNK        -0.0753 
     14 C14       -77.7347   30.1981  -72.4856 C.ar      11 UNK        -0.0933 
     15 C15       -75.4536   30.4419  -73.5361 C.3       11 UNK         0.0166 
     16 S16       -74.7312   31.9786  -72.8802 S.3       11 UNK        -0.2615 
     17 C17       -73.2641   31.3546  -71.9884 C.3       11 UNK        -0.0865 
     18 CA        -71.9585   31.5388  -72.8078 C.3       10 UNK         0.0862 
     19 C         -70.7009   31.1629  -71.9688 C.2       10 UNK         0.5551 
     20 N         -69.8512   30.2374  -72.4010 N.am      10 UNK        -0.7319 
     21 O         -70.4871   31.7328  -70.9017 O.2       10 UNK        -0.5018 
     22 N         -72.0426   30.8514  -74.1042 N.am      10 UNK        -0.4509 
     23 C         -71.3803   31.1946  -75.2139 C.2       10 UNK         0.4899 
     24 O         -70.6580   32.1886  -75.3036 O.2       10 UNK        -0.4839 
     25 CA        -71.5608   30.2523  -76.4228 C.3       9 UNK         0.0222 
     26 CB        -70.4088   30.3667  -77.4433 C.3       9 UNK        -0.1966 
     27 N         -71.7775   28.8473  -76.0435 N.am      9 UNK        -0.4218 
     28 C         -70.9554   28.0700  -75.3151 C.2       9 UNK         0.5020 
     29 O         -69.8938   28.4673  -74.8324 O.2       9 UNK        -0.5274 
     30 CA        -71.3944   26.6206  -75.0295 C.3       8 UNK         0.0270 
     31 CB        -71.7144   26.4473  -73.5346 C.3       8 UNK        -0.1976 
     32 N         -72.5475   26.1931  -75.8271 N.am      8 UNK        -0.4313 
     33 C         -72.4927   25.8995  -77.1363 C.2       8 UNK         0.5041 
     34 O         -71.4421   25.8711  -77.7785 O.2       8 UNK        -0.5577 
     35 CA        -73.8164   25.6152  -77.8730 C.3       7 UNK         0.0284 
     36 CB        -73.9353   24.1191  -78.2051 C.3       7 UNK        -0.1958 
     37 N         -75.0133   26.0521  -77.1469 N.am      7 UNK        -0.4454 
     38 C         -75.3264   27.3310  -76.8830 C.2       7 UNK         0.5089 
     39 O         -74.6377   28.2869  -77.2435 O.2       7 UNK        -0.5125 
     40 CA        -76.5775   27.5906  -76.0189 C.3       6 UNK         0.0408 
     41 CB        -77.7895   27.8721  -76.9160 C.3       6 UNK        -0.1791 
     42 N         -76.8973   26.5085  -75.0787 N.am      6 UNK        -0.4762 
     43 C         -76.0526   26.0403  -74.1469 C.2       6 UNK         0.5007 
     44 O         -74.9247   26.5042  -73.9747 O.2       6 UNK        -0.5032 
     45 CA        -76.4827   24.7992  -73.3330 C.3       5 UNK         0.0783 
     46 C46       -77.0218   25.1688  -71.9278 C.3       11 UNK        -0.0857 
     47 S47       -75.6768   25.6186  -70.7748 S.3       11 UNK        -0.2512 
     48 C48       -76.3612   27.0475  -69.8701 C.3       11 UNK         0.0225 
     49 N         -77.3872   23.8730  -74.0307 N.am      5 UNK        -0.4615 
     50 C         -77.1465   23.2781  -75.2078 C.2       4 UNK         0.5053 
     51 O         -76.2284   23.5914  -75.9644 O.2       4 UNK        -0.5105 
     52 CA        -78.0553   22.1028  -75.5806 C.3       4 UNK         0.0263 
     53 CB        -78.2187   21.0988  -74.4182 C.3       4 UNK        -0.1981 
     54 N         -79.3582   22.5603  -76.0632 N.am      4 UNK        -0.4224 
     55 C         -80.1674   21.8068  -76.8255 C.2       3 UNK         0.4895 
     56 O         -79.8716   20.6757  -77.2151 O.2       3 UNK        -0.5091 
     57 CA        -81.5444   22.3694  -77.2225 C.3       3 UNK         0.0250 
     58 CB        -82.6536   21.7197  -76.3787 C.3       3 UNK        -0.1996 
     59 N         -81.6418   23.8223  -77.1028 N.am      3 UNK        -0.4254 
     60 C         -81.1128   24.6937  -77.9725 C.2       2 UNK         0.5004 
     61 O         -80.5216   24.3605  -78.9998 O.2       2 UNK        -0.5226 
     62 CA        -81.2609   26.1916  -77.6453 C.3       2 UNK         0.0269 
     63 CB        -82.3780   26.8175  -78.4962 C.3       2 UNK        -0.1926 
     64 N         -81.5164   26.4883  -76.2298 N.am      2 UNK        -0.4687 
     65 C         -80.6961   26.1831  -75.2151 C.2       1 UNK         0.5165 
     66 O         -79.6184   25.5982  -75.3588 O.2       1 UNK        -0.5079 
     67 H67       -80.0074   22.7229  -71.8832 H         1 UNK         0.0900 
     68 H68       -79.9955   24.1598  -70.8559 H         1 UNK         0.0900 
     69 H69       -81.4455   23.1642  -70.9642 H         1 UNK         0.0900 
     70 H70       -80.1522   26.0478  -72.0530 H         1 UNK         0.2959 
     71 H71       -82.2492   26.6257  -73.8056 H         1 UNK         0.1079 
     72 H72       -81.0073   28.7518  -74.2687 H         1 UNK         0.0837 
     73 H73       -79.5663   28.0748  -73.5497 H         1 UNK         0.0837 
     74 H74       -80.2729   30.8194  -72.2914 H         1 UNK         0.0685 
     75 H75       -80.3114   30.4576  -70.5823 H         1 UNK         0.0685 
     76 H76       -78.8533   28.1345  -70.0385 H         1 UNK         0.1434 
     77 H77       -74.9254   28.4438  -71.7348 H         1 UNK         0.1329 
     78 H78       -78.0820   30.9759  -73.1519 H         1 UNK         0.1335 
     79 H79       -75.9994   30.6835  -74.4493 H         1 UNK         0.0680 
     80 H80       -74.6704   29.7425  -73.8313 H         1 UNK         0.0680 
     81 H81       -73.2012   31.9033  -71.0467 H         1 UNK         0.1032 
     82 H82       -73.4053   30.3087  -71.7136 H         1 UNK         0.1032 
     83 H83       -71.8586   32.6069  -73.0107 H         1 UNK         0.0461 
     84 H84       -69.9896   29.7633  -73.2867 H         1 UNK         0.3453 
     85 H85       -69.0433   30.0172  -71.8411 H         1 UNK         0.3453 
     86 H86       -72.5944   30.0086  -74.1240 H         1 UNK         0.2984 
     87 H87       -72.4764   30.5736  -76.9213 H         1 UNK         0.0554 
     88 H88       -70.3304   31.3816  -77.8351 H         1 UNK         0.0847 
     89 H89       -70.5658   29.7042  -78.2945 H         1 UNK         0.0847 
     90 H90       -69.4464   30.1158  -76.9961 H         1 UNK         0.0847 
     91 H91       -72.6423   28.4397  -76.3828 H         1 UNK         0.3141 
     92 H92       -70.5507   25.9712  -75.2724 H         1 UNK         0.0743 
     93 H93       -70.8324   26.6415  -72.9226 H         1 UNK         0.0784 
     94 H94       -72.4928   27.1357  -73.2036 H         1 UNK         0.0784 
     95 H95       -72.0463   25.4333  -73.3110 H         1 UNK         0.0784 
     96 H96       -73.4484   26.2020  -75.3572 H         1 UNK         0.3213 
     97 H97       -73.7844   26.1694  -78.8136 H         1 UNK         0.0855 
     98 H98       -73.9194   23.5044  -77.3045 H         1 UNK         0.0814 
     99 H99       -73.1062   23.7926  -78.8344 H         1 UNK         0.0814 
    100 H100      -74.8570   23.9012  -78.7448 H         1 UNK         0.0814 
    101 H101      -75.6019   25.3164  -76.7643 H         1 UNK         0.3105 
    102 H102      -76.3820   28.4840  -75.4256 H         1 UNK         0.0547 
    103 H103      -78.6592   28.1666  -76.3295 H         1 UNK         0.0837 
    104 H104      -77.5811   28.6852  -77.6128 H         1 UNK         0.0837 
    105 H105      -78.0541   26.9949  -77.5066 H         1 UNK         0.0837 
    106 H106      -77.8075   26.0635  -75.1781 H         1 UNK         0.3020 
    107 H107      -75.5649   24.2241  -73.1889 H         1 UNK         0.1245 
    108 H108      -77.5300   24.3131  -71.4817 H         1 UNK         0.0781 
    109 H109      -77.7705   25.9588  -71.9953 H         1 UNK         0.0781 
    110 H110      -75.5953   27.4376  -69.1985 H         1 UNK         0.0836 
    111 H111      -77.1746   26.6961  -69.2335 H         1 UNK         0.0836 
    112 H112      -78.1925   23.5673  -73.5083 H         1 UNK         0.3022 
    113 H113      -77.5498   21.5831  -76.3980 H         1 UNK         0.0747 
    114 H114      -78.6530   20.1613  -74.7654 H         1 UNK         0.0793 
    115 H115      -77.2550   20.8542  -73.9690 H         1 UNK         0.0793 
    116 H116      -78.8639   21.4845  -73.6296 H         1 UNK         0.0793 
    117 H117      -79.6285   23.5085  -75.8210 H         1 UNK         0.3047 
    118 H118      -81.7148   22.0992  -78.2671 H         1 UNK         0.0822 
    119 H119      -82.6411   20.6342  -76.4868 H         1 UNK         0.0807 
    120 H120      -83.6413   22.0628  -76.6872 H         1 UNK         0.0807 
    121 H121      -82.5365   21.9411  -75.3174 H         1 UNK         0.0807 
    122 H122      -82.0941   24.1810  -76.2732 H         1 UNK         0.2946 
    123 H123      -80.3196   26.6683  -77.9210 H         1 UNK         0.1144 
    124 H124      -82.4287   27.8973  -78.3545 H         1 UNK         0.0793 
    125 H125      -83.3548   26.3986  -78.2514 H         1 UNK         0.0793 
    126 H126      -82.2055   26.6415  -79.5591 H         1 UNK         0.0793 
    127 H127      -82.3812   26.9699  -76.0275 H         1 UNK         0.2896 
@<TRIPOS>BOND
     1    1    2 1    
     2    1   67 1    
     3    1   68 1    
     4    1   69 1    
     5    2    3 2    
     6    2    4 am   BACKBONE|DICT|INTERRES
     7    4    5 1    
     8    4   70 1    
     9    5    6 1    
    10    5   65 1    
    11    5   71 1    
    12    6    7 1    
    13    6   72 1    
    14    6   73 1    
    15    7    8 1    
    16    8    9 1    
    17    8   74 1    
    18    8   75 1    
    19    9   10 ar   
    20    9   14 ar   
    21   10   11 ar   
    22   10   76 1    
    23   11   12 ar   
    24   11   48 1    
    25   12   13 ar   
    26   12   77 1    
    27   13   14 ar   
    28   13   15 1    
    29   14   78 1    
    30   15   16 1    
    31   15   79 1    
    32   15   80 1    
    33   16   17 1    
    34   17   18 1    
    35   17   81 1    
    36   17   82 1    
    37   18   19 1    
    38   18   22 1    
    39   18   83 1    
    40   19   20 am   BACKBONE|DICT|INTERRES
    41   19   21 2    
    42   20   84 1    
    43   20   85 1    
    44   22   23 am   BACKBONE|DICT|INTERRES
    45   22   86 1    
    46   23   24 2    
    47   23   25 1    
    48   25   26 1    
    49   25   27 1    
    50   25   87 1    
    51   26   88 1    
    52   26   89 1    
    53   26   90 1    
    54   27   28 am   BACKBONE|DICT|INTERRES
    55   27   91 1    
    56   28   29 2    
    57   28   30 1    
    58   30   31 1    
    59   30   32 1    
    60   30   92 1    
    61   31   93 1    
    62   31   94 1    
    63   31   95 1    
    64   32   33 am   BACKBONE|DICT|INTERRES
    65   32   96 1    
    66   33   34 2    
    67   33   35 1    
    68   35   36 1    
    69   35   37 1    
    70   35   97 1    
    71   36   98 1    
    72   36   99 1    
    73   36  100 1    
    74   37   38 am   BACKBONE|DICT|INTERRES
    75   37  101 1    
    76   38   39 2    
    77   38   40 1    
    78   40   41 1    
    79   40   42 1    
    80   40  102 1    
    81   41  103 1    
    82   41  104 1    
    83   41  105 1    
    84   42   43 am   BACKBONE|DICT|INTERRES
    85   42  106 1    
    86   43   44 2    
    87   43   45 1    
    88   45   46 1    
    89   45   49 1    
    90   45  107 1    
    91   46   47 1    
    92   46  108 1    
    93   46  109 1    
    94   47   48 1    
    95   48  110 1    
    96   48  111 1    
    97   49   50 am   BACKBONE|DICT|INTERRES
    98   49  112 1    
    99   50   51 2    
   100   50   52 1    
   101   52   53 1    
   102   52   54 1    
   103   52  113 1    
   104   53  114 1    
   105   53  115 1    
   106   53  116 1    
   107   54   55 am   BACKBONE|DICT|INTERRES
   108   54  117 1    
   109   55   56 2    
   110   55   57 1    
   111   57   58 1    
   112   57   59 1    
   113   57  118 1    
   114   58  119 1    
   115   58  120 1    
   116   58  121 1    
   117   59   60 am   BACKBONE|DICT|INTERRES
   118   59  122 1    
   119   60   61 2    
   120   60   62 1    
   121   62   63 1    
   122   62   64 1    
   123   62  123 1    
   124   63  124 1    
   125   63  125 1    
   126   63  126 1    
   127   64   65 am   BACKBONE|DICT|INTERRES
   128   64  127 1    
   129   65   66 2    
@<TRIPOS>SUBSTRUCTURE
     1 UNK         1 GROUP             0       ****    0 ROOT    
