@<TRIPOS>MOLECULE
3R135
127   129    1
SMALL
USER_CHARGES


@<TRIPOS>ATOM
      1 CA        -82.6108   23.4087  -71.4537 C.3       0 UNK        -0.1998 
      2 C         -81.3379   23.7725  -70.6917 C.2       0 UNK         0.4909 
      3 O         -80.9497   23.0355  -69.7868 O.2       0 UNK        -0.5240 
      4 N         -80.6632   24.8913  -70.9948 N.am      1 UNK        -0.4739 
      5 CA        -80.9463   25.8544  -72.0706 C.3       1 UNK         0.0864 
      6 C6        -80.1185   27.1574  -71.9070 C.3       11 UNK        -0.0881 
      7 S7        -80.2672   27.8835  -70.2350 S.3       11 UNK        -0.2682 
      8 C8        -80.5211   29.6511  -70.5868 C.3       11 UNK         0.0289 
      9 C9        -79.3278   30.2665  -71.3037 C.ar      11 UNK        -0.0687 
     10 C10       -79.4504   30.6947  -72.6274 C.ar      11 UNK        -0.0823 
     11 C11       -78.3598   31.2573  -73.2959 C.ar      11 UNK        -0.0830 
     12 C12       -77.1364   31.3873  -72.6310 C.ar      11 UNK        -0.1021 
     13 C13       -76.9989   30.9588  -71.3070 C.ar      11 UNK        -0.0753 
     14 C14       -78.1032   30.4121  -70.6447 C.ar      11 UNK        -0.0933 
     15 C15       -75.6630   31.1071  -70.5893 C.3       11 UNK         0.0166 
     16 S16       -75.0116   29.5236  -69.9625 S.3       11 UNK        -0.2615 
     17 C17       -74.6100   28.6273  -71.5026 C.3       11 UNK        -0.0865 
     18 CA        -73.1450   28.8305  -71.9817 C.3       10 UNK         0.0862 
     19 C         -72.1142   27.9729  -71.1812 C.2       10 UNK         0.5551 
     20 N         -71.2875   27.1464  -71.8122 N.am      10 UNK        -0.7319 
     21 O         -72.0418   28.0696  -69.9591 O.2       10 UNK        -0.5018 
     22 N         -73.0584   28.6535  -73.4387 N.am      10 UNK        -0.4509 
     23 C         -72.1711   29.2572  -74.2379 C.2       10 UNK         0.4899 
     24 O         -71.3750   30.1126  -73.8466 O.2       10 UNK        -0.4839 
     25 CA        -72.1745   28.8297  -75.7214 C.3       9 UNK         0.0222 
     26 CB        -70.9027   29.2776  -76.4730 C.3       9 UNK        -0.1966 
     27 N         -72.4111   27.3922  -75.9349 N.am      9 UNK        -0.4218 
     28 C         -71.6856   26.3776  -75.4365 C.2       9 UNK         0.5020 
     29 O         -70.7392   26.5364  -74.6639 O.2       9 UNK        -0.5274 
     30 CA        -72.0592   24.9378  -75.8382 C.3       8 UNK         0.0270 
     31 CB        -72.5372   24.1343  -74.6178 C.3       8 UNK        -0.1976 
     32 N         -73.0412   24.8370  -76.9277 N.am      8 UNK        -0.4313 
     33 C         -72.7008   24.9211  -78.2232 C.2       8 UNK         0.5041 
     34 O         -71.5695   25.2133  -78.6129 O.2       8 UNK        -0.5577 
     35 CA        -73.7848   24.6144  -79.2632 C.3       7 UNK         0.0284 
     36 CB        -74.1064   23.1096  -79.2997 C.3       7 UNK        -0.1958 
     37 N         -75.0027   25.3794  -78.9977 N.am      7 UNK        -0.4454 
     38 C         -75.4458   26.3787  -79.7708 C.2       7 UNK         0.5089 
     39 O         -74.8869   26.7485  -80.8045 O.2       7 UNK        -0.5125 
     40 CA        -76.7345   27.0961  -79.3356 C.3       6 UNK         0.0408 
     41 CB        -77.9673   26.4291  -79.9652 C.3       6 UNK        -0.1791 
     42 N         -76.9258   27.2124  -77.8876 N.am      6 UNK        -0.4762 
     43 C         -76.1359   27.9237  -77.0694 C.2       6 UNK         0.5007 
     44 O         -75.0443   28.3836  -77.4004 O.2       6 UNK        -0.5032 
     45 CA        -76.6639   28.1649  -75.6437 C.3       5 UNK         0.0783 
     46 C46       -77.9063   29.0896  -75.6456 C.3       11 UNK        -0.0857 
     47 S47       -77.4242   30.8344  -75.8917 S.3       11 UNK        -0.2512 
     48 C48       -78.5141   31.7257  -74.7365 C.3       11 UNK         0.0225 
     49 N         -76.9334   26.8799  -75.0044 N.am      5 UNK        -0.4615 
     50 C         -76.0186   26.1872  -74.3143 C.2       4 UNK         0.5053 
     51 O         -74.9133   26.6356  -74.0194 O.2       4 UNK        -0.5105 
     52 CA        -76.3593   24.7346  -73.9326 C.3       4 UNK         0.0263 
     53 CB        -76.8522   24.6371  -72.4823 C.3       4 UNK        -0.1981 
     54 N         -77.3217   24.1163  -74.8471 N.am      4 UNK        -0.4224 
     55 C         -77.0515   23.8745  -76.1394 C.2       3 UNK         0.4895 
     56 O         -75.9497   24.0871  -76.6500 O.2       3 UNK        -0.5091 
     57 CA        -78.2005   23.3750  -77.0320 C.3       3 UNK         0.0250 
     58 CB        -78.1720   21.8422  -77.1265 C.3       3 UNK        -0.1996 
     59 N         -79.5339   23.8134  -76.6054 N.am      3 UNK        -0.4254 
     60 C         -79.9369   25.0840  -76.4510 C.2       2 UNK         0.5004 
     61 O         -79.2213   26.0610  -76.6775 O.2       2 UNK        -0.5226 
     62 CA        -81.3556   25.3121  -75.8919 C.3       2 UNK         0.0269 
     63 CB        -82.2790   24.0781  -76.0145 C.3       2 UNK        -0.1926 
     64 N         -81.3430   25.7906  -74.4999 N.am      2 UNK        -0.4687 
     65 C         -80.7103   25.2222  -73.4614 C.2       1 UNK         0.5165 
     66 O         -79.9734   24.2375  -73.5675 O.2       1 UNK        -0.5079 
     67 H67       -83.1672   22.6419  -70.9149 H         1 UNK         0.0900 
     68 H68       -82.3685   23.0099  -72.4383 H         1 UNK         0.0900 
     69 H69       -83.2724   24.2656  -71.5708 H         1 UNK         0.0900 
     70 H70       -79.8354   25.1022  -70.4574 H         1 UNK         0.2959 
     71 H71       -82.0011   26.1265  -72.0030 H         1 UNK         0.1079 
     72 H72       -79.0589   26.9878  -72.0989 H         1 UNK         0.0837 
     73 H73       -80.4380   27.8946  -72.6453 H         1 UNK         0.0837 
     74 H74       -81.4366   29.7734  -71.1678 H         1 UNK         0.0685 
     75 H75       -80.6829   30.1782  -69.6456 H         1 UNK         0.0685 
     76 H76       -80.3975   30.5887  -73.1388 H         1 UNK         0.1434 
     77 H77       -76.2915   31.8188  -73.1506 H         1 UNK         0.1329 
     78 H78       -78.0046   30.0818  -69.6196 H         1 UNK         0.1335 
     79 H79       -74.9156   31.5623  -71.2413 H         1 UNK         0.0680 
     80 H80       -75.7925   31.7890  -69.7479 H         1 UNK         0.0680 
     81 H81       -75.3096   28.9555  -72.2730 H         1 UNK         0.1032 
     82 H82       -74.8236   27.5665  -71.3588 H         1 UNK         0.1032 
     83 H83       -72.8822   29.8696  -71.7753 H         1 UNK         0.0461 
     84 H84       -70.6267   26.6120  -71.2717 H         1 UNK         0.3453 
     85 H85       -71.2816   27.0719  -72.8237 H         1 UNK         0.3453 
     86 H86       -73.6551   27.9212  -73.8204 H         1 UNK         0.2984 
     87 H87       -73.0156   29.3542  -76.1731 H         1 UNK         0.0554 
     88 H88       -70.9445   28.9958  -77.5251 H         1 UNK         0.0847 
     89 H89       -70.0030   28.8362  -76.0429 H         1 UNK         0.0847 
     90 H90       -70.7841   30.3612  -76.4346 H         1 UNK         0.0847 
     91 H91       -73.1952   27.1677  -76.5333 H         1 UNK         0.3141 
     92 H92       -71.1358   24.4641  -76.1794 H         1 UNK         0.0743 
     93 H93       -73.2838   24.6757  -74.0428 H         1 UNK         0.0784 
     94 H94       -72.9529   23.1672  -74.9016 H         1 UNK         0.0784 
     95 H95       -71.7049   23.9424  -73.9396 H         1 UNK         0.0784 
     96 H96       -73.9930   24.5794  -76.6832 H         1 UNK         0.3213 
     97 H97       -73.3746   24.8784  -80.2405 H         1 UNK         0.0855 
     98 H98       -74.4911   22.7435  -78.3480 H         1 UNK         0.0814 
     99 H99       -73.2130   22.5285  -79.5320 H         1 UNK         0.0814 
    100 H100      -74.8471   22.8838  -80.0668 H         1 UNK         0.0814 
    101 H101      -75.5175   25.1336  -78.1566 H         1 UNK         0.3105 
    102 H102      -76.6776   28.1141  -79.7271 H         1 UNK         0.0547 
    103 H103      -77.8809   26.3993  -81.0522 H         1 UNK         0.0837 
    104 H104      -78.0939   25.4034  -79.6230 H         1 UNK         0.0837 
    105 H105      -78.8802   26.9762  -79.7289 H         1 UNK         0.0837 
    106 H106      -77.7952   26.8365  -77.5121 H         1 UNK         0.3020 
    107 H107      -75.8747   28.6735  -75.0842 H         1 UNK         0.1245 
    108 H108      -78.4278   28.9910  -74.6939 H         1 UNK         0.0781 
    109 H109      -78.6350   28.8045  -76.4067 H         1 UNK         0.0781 
    110 H110      -79.5456   31.6170  -75.0755 H         1 UNK         0.0836 
    111 H111      -78.2870   32.7913  -74.7891 H         1 UNK         0.0836 
    112 H112      -77.7986   26.4254  -75.2728 H         1 UNK         0.3022 
    113 H113      -75.4404   24.1527  -74.0005 H         1 UNK         0.0747 
    114 H114      -77.0083   23.5996  -72.1867 H         1 UNK         0.0793 
    115 H115      -76.1233   25.0655  -71.7929 H         1 UNK         0.0793 
    116 H116      -77.7895   25.1671  -72.3356 H         1 UNK         0.0793 
    117 H117      -78.2609   23.9552  -74.4915 H         1 UNK         0.3047 
    118 H118      -78.0275   23.7765  -78.0305 H         1 UNK         0.0822 
    119 H119      -78.9120   21.4737  -77.8372 H         1 UNK         0.0807 
    120 H120      -78.3693   21.3742  -76.1610 H         1 UNK         0.0807 
    121 H121      -77.1967   21.4902  -77.4665 H         1 UNK         0.0807 
    122 H122      -80.1844   23.0838  -76.3525 H         1 UNK         0.2946 
    123 H123      -81.7878   26.1099  -76.4987 H         1 UNK         0.1144 
    124 H124      -82.3192   23.7134  -77.0421 H         1 UNK         0.0793 
    125 H125      -83.3008   24.3290  -75.7291 H         1 UNK         0.0793 
    126 H126      -81.9583   23.2525  -75.3780 H         1 UNK         0.0793 
    127 H127      -81.8934   26.6212  -74.3297 H         1 UNK         0.2896 
@<TRIPOS>BOND
     1    1    2 1    
     2    1   67 1    
     3    1   68 1    
     4    1   69 1    
     5    2    3 2    
     6    2    4 am   BACKBONE|DICT|INTERRES
     7    4    5 1    
     8    4   70 1    
     9    5    6 1    
    10    5   65 1    
    11    5   71 1    
    12    6    7 1    
    13    6   72 1    
    14    6   73 1    
    15    7    8 1    
    16    8    9 1    
    17    8   74 1    
    18    8   75 1    
    19    9   10 ar   
    20    9   14 ar   
    21   10   11 ar   
    22   10   76 1    
    23   11   12 ar   
    24   11   48 1    
    25   12   13 ar   
    26   12   77 1    
    27   13   14 ar   
    28   13   15 1    
    29   14   78 1    
    30   15   16 1    
    31   15   79 1    
    32   15   80 1    
    33   16   17 1    
    34   17   18 1    
    35   17   81 1    
    36   17   82 1    
    37   18   19 1    
    38   18   22 1    
    39   18   83 1    
    40   19   20 am   BACKBONE|DICT|INTERRES
    41   19   21 2    
    42   20   84 1    
    43   20   85 1    
    44   22   23 am   BACKBONE|DICT|INTERRES
    45   22   86 1    
    46   23   24 2    
    47   23   25 1    
    48   25   26 1    
    49   25   27 1    
    50   25   87 1    
    51   26   88 1    
    52   26   89 1    
    53   26   90 1    
    54   27   28 am   BACKBONE|DICT|INTERRES
    55   27   91 1    
    56   28   29 2    
    57   28   30 1    
    58   30   31 1    
    59   30   32 1    
    60   30   92 1    
    61   31   93 1    
    62   31   94 1    
    63   31   95 1    
    64   32   33 am   BACKBONE|DICT|INTERRES
    65   32   96 1    
    66   33   34 2    
    67   33   35 1    
    68   35   36 1    
    69   35   37 1    
    70   35   97 1    
    71   36   98 1    
    72   36   99 1    
    73   36  100 1    
    74   37   38 am   BACKBONE|DICT|INTERRES
    75   37  101 1    
    76   38   39 2    
    77   38   40 1    
    78   40   41 1    
    79   40   42 1    
    80   40  102 1    
    81   41  103 1    
    82   41  104 1    
    83   41  105 1    
    84   42   43 am   BACKBONE|DICT|INTERRES
    85   42  106 1    
    86   43   44 2    
    87   43   45 1    
    88   45   46 1    
    89   45   49 1    
    90   45  107 1    
    91   46   47 1    
    92   46  108 1    
    93   46  109 1    
    94   47   48 1    
    95   48  110 1    
    96   48  111 1    
    97   49   50 am   BACKBONE|DICT|INTERRES
    98   49  112 1    
    99   50   51 2    
   100   50   52 1    
   101   52   53 1    
   102   52   54 1    
   103   52  113 1    
   104   53  114 1    
   105   53  115 1    
   106   53  116 1    
   107   54   55 am   BACKBONE|DICT|INTERRES
   108   54  117 1    
   109   55   56 2    
   110   55   57 1    
   111   57   58 1    
   112   57   59 1    
   113   57  118 1    
   114   58  119 1    
   115   58  120 1    
   116   58  121 1    
   117   59   60 am   BACKBONE|DICT|INTERRES
   118   59  122 1    
   119   60   61 2    
   120   60   62 1    
   121   62   63 1    
   122   62   64 1    
   123   62  123 1    
   124   63  124 1    
   125   63  125 1    
   126   63  126 1    
   127   64   65 am   BACKBONE|DICT|INTERRES
   128   64  127 1    
   129   65   66 2    
@<TRIPOS>SUBSTRUCTURE
     1 UNK         1 GROUP             0       ****    0 ROOT    
