@<TRIPOS>MOLECULE
3R135
127   129    1
SMALL
USER_CHARGES


@<TRIPOS>ATOM
      1 CA        -84.9761   26.0955  -74.3379 C.3       0 UNK        -0.1998 
      2 C         -84.0254   27.2833  -74.3305 C.2       0 UNK         0.4909 
      3 O         -84.4451   28.4076  -74.6065 O.2       0 UNK        -0.5240 
      4 N         -82.7488   27.0426  -74.0193 N.am      1 UNK        -0.4739 
      5 CA        -81.6773   28.0346  -73.9939 C.3       1 UNK         0.0864 
      6 C6        -81.6297   28.7856  -72.6391 C.3       11 UNK        -0.0881 
      7 S7        -80.5328   30.2469  -72.6499 S.3       11 UNK        -0.2682 
      8 C8        -79.4845   29.9493  -71.1890 C.3       11 UNK         0.0289 
      9 C9        -78.2976   29.0438  -71.4921 C.ar      11 UNK        -0.0687 
     10 C10       -78.4169   27.6546  -71.3874 C.ar      11 UNK        -0.0823 
     11 C11       -77.3245   26.8153  -71.6315 C.ar      11 UNK        -0.0830 
     12 C12       -76.0884   27.3934  -71.9499 C.ar      11 UNK        -0.1021 
     13 C13       -75.9560   28.7792  -72.0706 C.ar      11 UNK        -0.0753 
     14 C14       -77.0658   29.5993  -71.8495 C.ar      11 UNK        -0.0933 
     15 C15       -74.6153   29.3817  -72.4602 C.3       11 UNK         0.0166 
     16 S16       -73.8264   30.2411  -71.0626 S.3       11 UNK        -0.2615 
     17 C17       -73.9502   31.9858  -71.5926 C.3       11 UNK        -0.0865 
     18 CA        -72.6554   32.6036  -72.2053 C.3       10 UNK         0.0862 
     19 C         -71.4793   32.7755  -71.1925 C.2       10 UNK         0.5551 
     20 N         -70.2248   32.7402  -71.6237 N.am      10 UNK        -0.7319 
     21 O         -71.7048   33.0006  -70.0056 O.2       10 UNK        -0.5018 
     22 N         -72.3238   32.0793  -73.5479 N.am      10 UNK        -0.4509 
     23 C         -71.6954   30.9378  -73.8631 C.2       10 UNK         0.4899 
     24 O         -71.2365   30.1352  -73.0488 O.2       10 UNK        -0.4839 
     25 CA        -71.4951   30.6754  -75.3643 C.3       9 UNK         0.0222 
     26 CB        -70.1331   31.2188  -75.8274 C.3       9 UNK        -0.1966 
     27 N         -71.5641   29.2416  -75.6512 N.am      9 UNK        -0.4218 
     28 C         -72.7056   28.5525  -75.7636 C.2       9 UNK         0.5020 
     29 O         -73.8250   29.0677  -75.7246 O.2       9 UNK        -0.5274 
     30 CA        -72.5710   27.0257  -75.8996 C.3       8 UNK         0.0270 
     31 CB        -72.5770   26.3657  -74.5115 C.3       8 UNK        -0.1976 
     32 N         -73.6520   26.4528  -76.7035 N.am      8 UNK        -0.4313 
     33 C         -73.7942   26.6248  -78.0239 C.2       8 UNK         0.5041 
     34 O         -72.9742   27.2160  -78.7304 O.2       8 UNK        -0.5577 
     35 CA        -75.0720   26.0331  -78.6460 C.3       7 UNK         0.0284 
     36 CB        -75.0936   26.0937  -80.1889 C.3       7 UNK        -0.1958 
     37 N         -75.3593   24.6793  -78.1554 N.am      7 UNK        -0.4454 
     38 C         -74.6506   23.5611  -78.3717 C.2       7 UNK         0.5089 
     39 O         -73.6197   23.5157  -79.0450 O.2       7 UNK        -0.5125 
     40 CA        -75.2141   22.2711  -77.7404 C.3       6 UNK         0.0408 
     41 CB        -74.2157   21.0939  -77.7713 C.3       6 UNK        -0.1791 
     42 N         -75.7550   22.4705  -76.3899 N.am      6 UNK        -0.4762 
     43 C         -75.0821   22.8449  -75.2874 C.2       6 UNK         0.5007 
     44 O         -73.8709   23.0642  -75.2809 O.2       6 UNK        -0.5032 
     45 CA        -75.8878   23.0077  -73.9761 C.3       5 UNK         0.0783 
     46 C46       -75.4182   24.2407  -73.1619 C.3       11 UNK        -0.0857 
     47 S47       -76.0670   24.2482  -71.4544 S.3       11 UNK        -0.2512 
     48 C48       -77.5553   25.3026  -71.5823 C.3       11 UNK         0.0225 
     49 N         -77.3181   23.0987  -74.2713 N.am      5 UNK        -0.4615 
     50 C         -78.2379   22.1534  -74.0494 C.2       4 UNK         0.5053 
     51 O         -77.9953   21.0734  -73.5117 O.2       4 UNK        -0.5105 
     52 CA        -79.6727   22.4551  -74.5263 C.3       4 UNK         0.0263 
     53 CB        -80.5753   22.8058  -73.3322 C.3       4 UNK        -0.1981 
     54 N         -79.7385   23.5356  -75.5185 N.am      4 UNK        -0.4224 
     55 C         -79.2973   23.4287  -76.7827 C.2       3 UNK         0.4895 
     56 O         -78.8328   22.3909  -77.2542 O.2       3 UNK        -0.5091 
     57 CA        -79.3075   24.7012  -77.6515 C.3       3 UNK         0.0250 
     58 CB        -80.6235   24.8009  -78.4383 C.3       3 UNK        -0.1996 
     59 N         -79.1018   25.9392  -76.8937 N.am      3 UNK        -0.4254 
     60 C         -78.0385   26.2125  -76.1245 C.2       2 UNK         0.5004 
     61 O         -77.0646   25.4669  -76.0225 O.2       2 UNK        -0.5226 
     62 CA        -78.0794   27.5029  -75.2921 C.3       2 UNK         0.0269 
     63 CB        -77.2953   28.6184  -75.9967 C.3       2 UNK        -0.1926 
     64 N         -79.4246   27.9879  -74.9584 N.am      2 UNK        -0.4687 
     65 C         -80.3708   27.2909  -74.3130 C.2       1 UNK         0.5165 
     66 O         -80.2509   26.1050  -73.9882 O.2       1 UNK        -0.5079 
     67 H67       -85.7825   26.2562  -73.6229 H         1 UNK         0.0900 
     68 H68       -85.4163   25.9733  -75.3271 H         1 UNK         0.0900 
     69 H69       -84.4699   25.1667  -74.0748 H         1 UNK         0.0900 
     70 H70       -82.4285   26.0997  -73.8334 H         1 UNK         0.2959 
     71 H71       -81.8572   28.7545  -74.7960 H         1 UNK         0.1079 
     72 H72       -81.3634   28.1046  -71.8303 H         1 UNK         0.0837 
     73 H73       -82.6278   29.1504  -72.3913 H         1 UNK         0.0837 
     74 H74       -80.0836   29.5335  -70.3775 H         1 UNK         0.0685 
     75 H75       -79.1235   30.9127  -70.8256 H         1 UNK         0.0685 
     76 H76       -79.3704   27.2188  -71.1246 H         1 UNK         0.1434 
     77 H77       -75.2211   26.7755  -72.1235 H         1 UNK         0.1329 
     78 H78       -76.9642   30.6720  -71.9391 H         1 UNK         0.1335 
     79 H79       -74.7495   30.0523  -73.3096 H         1 UNK         0.0680 
     80 H80       -73.9318   28.6052  -72.8045 H         1 UNK         0.0680 
     81 H81       -74.7759   32.0972  -72.2961 H         1 UNK         0.1032 
     82 H82       -74.2550   32.5673  -70.7207 H         1 UNK         0.1032 
     83 H83       -72.9206   33.6400  -72.4177 H         1 UNK         0.0461 
     84 H84       -69.4716   32.8697  -70.9668 H         1 UNK         0.3453 
     85 H85       -70.0261   32.5464  -72.5916 H         1 UNK         0.3453 
     86 H86       -72.6120   32.6759  -74.3103 H         1 UNK         0.2984 
     87 H87       -72.2802   31.1870  -75.9258 H         1 UNK         0.0554 
     88 H88       -70.0623   32.2941  -75.6581 H         1 UNK         0.0847 
     89 H89       -69.9806   31.0509  -76.8938 H         1 UNK         0.0847 
     90 H90       -69.3061   30.7501  -75.2922 H         1 UNK         0.0847 
     91 H91       -70.6895   28.7369  -75.6354 H         1 UNK         0.3141 
     92 H92       -71.6231   26.7981  -76.3922 H         1 UNK         0.0743 
     93 H93       -73.5257   26.5214  -73.9981 H         1 UNK         0.0784 
     94 H94       -72.4046   25.2917  -74.5828 H         1 UNK         0.0784 
     95 H95       -71.7917   26.7774  -73.8758 H         1 UNK         0.0784 
     96 H96       -74.3836   25.9671  -76.2049 H         1 UNK         0.3213 
     97 H97       -75.8903   26.6623  -78.2939 H         1 UNK         0.0855 
     98 H98       -74.2626   25.5438  -80.6311 H         1 UNK         0.0814 
     99 H99       -75.0188   27.1245  -80.5375 H         1 UNK         0.0814 
    100 H100      -76.0205   25.6834  -80.5895 H         1 UNK         0.0814 
    101 H101      -76.1321   24.6247  -77.4980 H         1 UNK         0.3105 
    102 H102      -76.0659   21.9871  -78.3602 H         1 UNK         0.0547 
    103 H103      -74.6494   20.1933  -77.3373 H         1 UNK         0.0837 
    104 H104      -73.2996   21.3227  -77.2262 H         1 UNK         0.0837 
    105 H105      -73.9295   20.8523  -78.7955 H         1 UNK         0.0837 
    106 H106      -76.7537   22.3252  -76.3041 H         1 UNK         0.3020 
    107 H107      -75.6821   22.1104  -73.3881 H         1 UNK         0.1245 
    108 H108      -75.6929   25.1621  -73.6767 H         1 UNK         0.0781 
    109 H109      -74.3310   24.2557  -73.0693 H         1 UNK         0.0781 
    110 H110      -78.1868   25.0728  -70.7229 H         1 UNK         0.0836 
    111 H111      -78.1278   25.0121  -72.4630 H         1 UNK         0.0836 
    112 H112      -77.5930   23.9430  -74.7597 H         1 UNK         0.3022 
    113 H113      -80.0600   21.5451  -74.9897 H         1 UNK         0.0747 
    114 H114      -81.6028   22.9844  -73.6492 H         1 UNK         0.0793 
    115 H115      -80.5973   21.9903  -72.6080 H         1 UNK         0.0793 
    116 H116      -80.2264   23.6954  -72.8073 H         1 UNK         0.0793 
    117 H117      -80.0562   24.4387  -75.1803 H         1 UNK         0.3047 
    118 H118      -78.4867   24.6143  -78.3666 H         1 UNK         0.0822 
    119 H119      -80.6098   25.6430  -79.1305 H         1 UNK         0.0807 
    120 H120      -81.4824   24.9223  -77.7768 H         1 UNK         0.0807 
    121 H121      -80.7931   23.9006  -79.0310 H         1 UNK         0.0807 
    122 H122      -79.8508   26.6157  -76.9170 H         1 UNK         0.2946 
    123 H123      -77.5746   27.2777  -74.3529 H         1 UNK         0.1144 
    124 H124      -77.1729   29.4860  -75.3477 H         1 UNK         0.0793 
    125 H125      -77.7876   28.9455  -76.9131 H         1 UNK         0.0793 
    126 H126      -76.2943   28.2804  -76.2665 H         1 UNK         0.0793 
    127 H127      -79.6067   28.9605  -75.1627 H         1 UNK         0.2896 
@<TRIPOS>BOND
     1    1    2 1    
     2    1   67 1    
     3    1   68 1    
     4    1   69 1    
     5    2    3 2    
     6    2    4 am   BACKBONE|DICT|INTERRES
     7    4    5 1    
     8    4   70 1    
     9    5    6 1    
    10    5   65 1    
    11    5   71 1    
    12    6    7 1    
    13    6   72 1    
    14    6   73 1    
    15    7    8 1    
    16    8    9 1    
    17    8   74 1    
    18    8   75 1    
    19    9   10 ar   
    20    9   14 ar   
    21   10   11 ar   
    22   10   76 1    
    23   11   12 ar   
    24   11   48 1    
    25   12   13 ar   
    26   12   77 1    
    27   13   14 ar   
    28   13   15 1    
    29   14   78 1    
    30   15   16 1    
    31   15   79 1    
    32   15   80 1    
    33   16   17 1    
    34   17   18 1    
    35   17   81 1    
    36   17   82 1    
    37   18   19 1    
    38   18   22 1    
    39   18   83 1    
    40   19   20 am   BACKBONE|DICT|INTERRES
    41   19   21 2    
    42   20   84 1    
    43   20   85 1    
    44   22   23 am   BACKBONE|DICT|INTERRES
    45   22   86 1    
    46   23   24 2    
    47   23   25 1    
    48   25   26 1    
    49   25   27 1    
    50   25   87 1    
    51   26   88 1    
    52   26   89 1    
    53   26   90 1    
    54   27   28 am   BACKBONE|DICT|INTERRES
    55   27   91 1    
    56   28   29 2    
    57   28   30 1    
    58   30   31 1    
    59   30   32 1    
    60   30   92 1    
    61   31   93 1    
    62   31   94 1    
    63   31   95 1    
    64   32   33 am   BACKBONE|DICT|INTERRES
    65   32   96 1    
    66   33   34 2    
    67   33   35 1    
    68   35   36 1    
    69   35   37 1    
    70   35   97 1    
    71   36   98 1    
    72   36   99 1    
    73   36  100 1    
    74   37   38 am   BACKBONE|DICT|INTERRES
    75   37  101 1    
    76   38   39 2    
    77   38   40 1    
    78   40   41 1    
    79   40   42 1    
    80   40  102 1    
    81   41  103 1    
    82   41  104 1    
    83   41  105 1    
    84   42   43 am   BACKBONE|DICT|INTERRES
    85   42  106 1    
    86   43   44 2    
    87   43   45 1    
    88   45   46 1    
    89   45   49 1    
    90   45  107 1    
    91   46   47 1    
    92   46  108 1    
    93   46  109 1    
    94   47   48 1    
    95   48  110 1    
    96   48  111 1    
    97   49   50 am   BACKBONE|DICT|INTERRES
    98   49  112 1    
    99   50   51 2    
   100   50   52 1    
   101   52   53 1    
   102   52   54 1    
   103   52  113 1    
   104   53  114 1    
   105   53  115 1    
   106   53  116 1    
   107   54   55 am   BACKBONE|DICT|INTERRES
   108   54  117 1    
   109   55   56 2    
   110   55   57 1    
   111   57   58 1    
   112   57   59 1    
   113   57  118 1    
   114   58  119 1    
   115   58  120 1    
   116   58  121 1    
   117   59   60 am   BACKBONE|DICT|INTERRES
   118   59  122 1    
   119   60   61 2    
   120   60   62 1    
   121   62   63 1    
   122   62   64 1    
   123   62  123 1    
   124   63  124 1    
   125   63  125 1    
   126   63  126 1    
   127   64   65 am   BACKBONE|DICT|INTERRES
   128   64  127 1    
   129   65   66 2    
@<TRIPOS>SUBSTRUCTURE
     1 UNK         1 GROUP             0       ****    0 ROOT    
