@<TRIPOS>MOLECULE
3R135
127   129    1
SMALL
USER_CHARGES


@<TRIPOS>ATOM
      1 CA        -78.2696   23.4846  -68.0396 C.3       0 UNK        -0.1998 
      2 C         -79.3017   24.2068  -68.8924 C.2       0 UNK         0.4909 
      3 O         -80.4684   24.2855  -68.5066 O.2       0 UNK        -0.5240 
      4 N         -78.8818   24.7343  -70.0502 N.am      1 UNK        -0.4739 
      5 CA        -79.7347   25.4727  -70.9937 C.3       1 UNK         0.0864 
      6 C6        -78.8986   26.3074  -71.9954 C.3       11 UNK        -0.0881 
      7 S7        -77.8813   27.5637  -71.1496 S.3       11 UNK        -0.2682 
      8 C8        -78.8584   29.0761  -71.4267 C.3       11 UNK         0.0289 
      9 C9        -78.6896   29.6013  -72.8448 C.ar      11 UNK        -0.0687 
     10 C10       -79.7132   29.4642  -73.7857 C.ar      11 UNK        -0.0823 
     11 C11       -79.5461   29.9444  -75.0880 C.ar      11 UNK        -0.0830 
     12 C12       -78.3444   30.5649  -75.4465 C.ar      11 UNK        -0.1021 
     13 C13       -77.3038   30.6906  -74.5199 C.ar      11 UNK        -0.0753 
     14 C14       -77.4970   30.2266  -73.2145 C.ar      11 UNK        -0.0933 
     15 C15       -75.9812   31.3284  -74.9351 C.3       11 UNK         0.0166 
     16 S16       -74.5547   30.2183  -74.6691 S.3       11 UNK        -0.2615 
     17 C17       -74.0793   30.6202  -72.9475 C.3       11 UNK        -0.0865 
     18 CA        -72.5627   30.9071  -72.7952 C.3       10 UNK         0.0862 
     19 C         -72.2509   31.5653  -71.4180 C.2       10 UNK         0.5551 
     20 N         -71.4671   30.9471  -70.5426 N.am      10 UNK        -0.7319 
     21 O         -72.7269   32.6640  -71.1430 O.2       10 UNK        -0.5018 
     22 N         -71.7682   29.7040  -73.0880 N.am      10 UNK        -0.4509 
     23 C         -70.4838   29.6929  -73.4654 C.2       10 UNK         0.4899 
     24 O         -69.8089   30.7112  -73.6210 O.2       10 UNK        -0.4839 
     25 CA        -69.8253   28.3165  -73.6983 C.3       9 UNK         0.0222 
     26 CB        -68.7951   28.0219  -72.5945 C.3       9 UNK        -0.1966 
     27 N         -70.7694   27.1936  -73.7805 N.am      9 UNK        -0.4218 
     28 C         -71.6417   26.9991  -74.7784 C.2       9 UNK         0.5020 
     29 O         -71.7530   27.7584  -75.7443 O.2       9 UNK        -0.5274 
     30 CA        -72.5703   25.7778  -74.6366 C.3       8 UNK         0.0270 
     31 CB        -73.6866   26.0659  -73.6163 C.3       8 UNK        -0.1976 
     32 N         -73.1924   25.4384  -75.9136 N.am      8 UNK        -0.4313 
     33 C         -72.5560   24.9181  -76.9728 C.2       8 UNK         0.5041 
     34 O         -71.4185   24.4466  -76.9316 O.2       8 UNK        -0.5577 
     35 CA        -73.3041   24.9834  -78.3135 C.3       7 UNK         0.0284 
     36 CB        -74.2615   23.7914  -78.4719 C.3       7 UNK        -0.1958 
     37 N         -74.0494   26.2412  -78.4028 N.am      7 UNK        -0.4454 
     38 C         -73.5404   27.3977  -78.8505 C.2       7 UNK         0.5089 
     39 O         -72.4555   27.4796  -79.4287 O.2       7 UNK        -0.5125 
     40 CA        -74.3431   28.6912  -78.5833 C.3       6 UNK         0.0408 
     41 CB        -74.4884   29.5571  -79.8522 C.3       6 UNK        -0.1791 
     42 N         -75.6395   28.4877  -77.9192 N.am      6 UNK        -0.4762 
     43 C         -76.7304   27.8872  -78.4181 C.2       6 UNK         0.5007 
     44 O         -76.8163   27.4450  -79.5647 O.2       6 UNK        -0.5032 
     45 CA        -77.9054   27.6884  -77.4434 C.3       5 UNK         0.0783 
     46 C46       -79.2132   28.2868  -78.0184 C.3       11 UNK        -0.0857 
     47 S47       -80.6286   28.1310  -76.8757 S.3       11 UNK        -0.2512 
     48 C48       -80.6655   29.7807  -76.1051 C.3       11 UNK         0.0225 
     49 N         -78.0571   26.2768  -77.0910 N.am      5 UNK        -0.4615 
     50 C         -77.1513   25.5129  -76.4709 C.2       4 UNK         0.5053 
     51 O         -76.0183   25.9065  -76.1841 O.2       4 UNK        -0.5105 
     52 CA        -77.5776   24.0765  -76.1017 C.3       4 UNK         0.0263 
     53 CB        -76.7391   23.5071  -74.9413 C.3       4 UNK        -0.1981 
     54 N         -78.9989   23.9687  -75.7528 N.am      4 UNK        -0.4224 
     55 C         -80.0190   23.8816  -76.6185 C.2       3 UNK         0.4895 
     56 O         -79.8660   23.9290  -77.8394 O.2       3 UNK        -0.5091 
     57 CA        -81.4452   23.7806  -76.0371 C.3       3 UNK         0.0250 
     58 CB        -82.3532   22.8551  -76.8747 C.3       3 UNK        -0.1996 
     59 N         -81.4994   23.4229  -74.6119 N.am      3 UNK        -0.4254 
     60 C         -81.1048   22.2820  -74.0278 C.2       2 UNK         0.5004 
     61 O         -80.6156   21.3299  -74.6375 O.2       2 UNK        -0.5226 
     62 CA        -81.2420   22.2290  -72.4929 C.3       2 UNK         0.0269 
     63 CB        -80.8669   20.8529  -71.9109 C.3       2 UNK        -0.1926 
     64 N         -80.4270   23.2546  -71.8327 N.am      2 UNK        -0.4687 
     65 C         -80.7239   24.5601  -71.7492 C.2       1 UNK         0.5165 
     66 O         -81.7308   25.0545  -72.2591 O.2       1 UNK        -0.5079 
     67 H67       -78.5640   22.4456  -67.8940 H         1 UNK         0.0900 
     68 H68       -78.1944   23.9582  -67.0612 H         1 UNK         0.0900 
     69 H69       -77.2811   23.4963  -68.4984 H         1 UNK         0.0900 
     70 H70       -77.9058   24.6683  -70.3028 H         1 UNK         0.2959 
     71 H71       -80.3486   26.1652  -70.4127 H         1 UNK         0.1079 
     72 H72       -78.2330   25.6635  -72.5728 H         1 UNK         0.0837 
     73 H73       -79.5425   26.8006  -72.7256 H         1 UNK         0.0837 
     74 H74       -79.9082   28.8825  -71.2005 H         1 UNK         0.0685 
     75 H75       -78.5301   29.8402  -70.7206 H         1 UNK         0.0685 
     76 H76       -80.6390   28.9783  -73.5088 H         1 UNK         0.1434 
     77 H77       -78.2135   30.9333  -76.4548 H         1 UNK         0.1329 
     78 H78       -76.7130   30.3269  -72.4800 H         1 UNK         0.1335 
     79 H79       -76.0052   31.5850  -75.9953 H         1 UNK         0.0680 
     80 H80       -75.8419   32.2705  -74.4037 H         1 UNK         0.0680 
     81 H81       -74.3765   29.7937  -72.2995 H         1 UNK         0.1032 
     82 H82       -74.6573   31.4839  -72.6145 H         1 UNK         0.1032 
     83 H83       -72.2989   31.6603  -73.5404 H         1 UNK         0.0461 
     84 H84       -71.0676   30.0492  -70.7612 H         1 UNK         0.3453 
     85 H85       -71.2707   31.3871  -69.6573 H         1 UNK         0.3453 
     86 H86       -72.2483   28.8223  -72.9998 H         1 UNK         0.2984 
     87 H87       -69.2936   28.3749  -74.6504 H         1 UNK         0.0554 
     88 H88       -68.2518   27.0979  -72.7935 H         1 UNK         0.0847 
     89 H89       -69.2651   27.9321  -71.6144 H         1 UNK         0.0847 
     90 H90       -68.0538   28.8197  -72.5272 H         1 UNK         0.0847 
     91 H91       -70.7466   26.5284  -73.0202 H         1 UNK         0.3141 
     92 H92       -71.9815   24.9230  -74.2974 H         1 UNK         0.0743 
     93 H93       -73.2787   26.2779  -72.6274 H         1 UNK         0.0784 
     94 H94       -74.3560   25.2119  -73.5107 H         1 UNK         0.0784 
     95 H95       -74.2915   26.9248  -73.9128 H         1 UNK         0.0784 
     96 H96       -74.1457   25.7684  -76.0397 H         1 UNK         0.3213 
     97 H97       -72.5675   24.9370  -79.1188 H         1 UNK         0.0855 
     98 H98       -73.7079   22.8517  -78.4826 H         1 UNK         0.0814 
     99 H99       -74.8186   23.8508  -79.4070 H         1 UNK         0.0814 
    100 H100      -74.9795   23.7327  -77.6553 H         1 UNK         0.0814 
    101 H101      -74.9348   26.2793  -77.9126 H         1 UNK         0.3105 
    102 H102      -73.7441   29.2605  -77.8706 H         1 UNK         0.0547 
    103 H103      -75.0094   29.0282  -80.6504 H         1 UNK         0.0837 
    104 H104      -73.5109   29.8429  -80.2423 H         1 UNK         0.0837 
    105 H105      -75.0336   30.4777  -79.6452 H         1 UNK         0.0837 
    106 H106      -75.6549   28.7660  -76.9462 H         1 UNK         0.3020 
    107 H107      -77.6697   28.2082  -76.5142 H         1 UNK         0.1245 
    108 H108      -79.4844   27.7828  -78.9483 H         1 UNK         0.0781 
    109 H109      -79.0747   29.3376  -78.2789 H         1 UNK         0.0781 
    110 H110      -81.6291   29.9148  -75.6113 H         1 UNK         0.0836 
    111 H111      -80.6118   30.5545  -76.8724 H         1 UNK         0.0836 
    112 H112      -78.9361   25.8487  -77.3499 H         1 UNK         0.3022 
    113 H113      -77.3916   23.4573  -76.9816 H         1 UNK         0.0747 
    114 H114      -77.0396   22.4879  -74.6971 H         1 UNK         0.0793 
    115 H115      -75.6793   23.4743  -75.1980 H         1 UNK         0.0793 
    116 H116      -76.8355   24.1121  -74.0393 H         1 UNK         0.0793 
    117 H117      -79.2191   23.9465  -74.7690 H         1 UNK         0.3047 
    118 H118      -81.8579   24.7886  -76.1039 H         1 UNK         0.0822 
    119 H119      -83.3629   22.8138  -76.4664 H         1 UNK         0.0807 
    120 H120      -81.9658   21.8368  -76.9173 H         1 UNK         0.0807 
    121 H121      -82.4368   23.2120  -77.9020 H         1 UNK         0.0807 
    122 H122      -81.8377   24.1526  -73.9893 H         1 UNK         0.2946 
    123 H123      -82.2937   22.4119  -72.2592 H         1 UNK         0.1144 
    124 H124      -81.4736   20.0622  -72.3548 H         1 UNK         0.0793 
    125 H125      -81.0331   20.8192  -70.8340 H         1 UNK         0.0793 
    126 H126      -79.8210   20.6054  -72.0973 H         1 UNK         0.0793 
    127 H127      -79.5720   22.9395  -71.3971 H         1 UNK         0.2896 
@<TRIPOS>BOND
     1    1    2 1    
     2    1   67 1    
     3    1   68 1    
     4    1   69 1    
     5    2    3 2    
     6    2    4 am   BACKBONE|DICT|INTERRES
     7    4    5 1    
     8    4   70 1    
     9    5    6 1    
    10    5   65 1    
    11    5   71 1    
    12    6    7 1    
    13    6   72 1    
    14    6   73 1    
    15    7    8 1    
    16    8    9 1    
    17    8   74 1    
    18    8   75 1    
    19    9   10 ar   
    20    9   14 ar   
    21   10   11 ar   
    22   10   76 1    
    23   11   12 ar   
    24   11   48 1    
    25   12   13 ar   
    26   12   77 1    
    27   13   14 ar   
    28   13   15 1    
    29   14   78 1    
    30   15   16 1    
    31   15   79 1    
    32   15   80 1    
    33   16   17 1    
    34   17   18 1    
    35   17   81 1    
    36   17   82 1    
    37   18   19 1    
    38   18   22 1    
    39   18   83 1    
    40   19   20 am   BACKBONE|DICT|INTERRES
    41   19   21 2    
    42   20   84 1    
    43   20   85 1    
    44   22   23 am   BACKBONE|DICT|INTERRES
    45   22   86 1    
    46   23   24 2    
    47   23   25 1    
    48   25   26 1    
    49   25   27 1    
    50   25   87 1    
    51   26   88 1    
    52   26   89 1    
    53   26   90 1    
    54   27   28 am   BACKBONE|DICT|INTERRES
    55   27   91 1    
    56   28   29 2    
    57   28   30 1    
    58   30   31 1    
    59   30   32 1    
    60   30   92 1    
    61   31   93 1    
    62   31   94 1    
    63   31   95 1    
    64   32   33 am   BACKBONE|DICT|INTERRES
    65   32   96 1    
    66   33   34 2    
    67   33   35 1    
    68   35   36 1    
    69   35   37 1    
    70   35   97 1    
    71   36   98 1    
    72   36   99 1    
    73   36  100 1    
    74   37   38 am   BACKBONE|DICT|INTERRES
    75   37  101 1    
    76   38   39 2    
    77   38   40 1    
    78   40   41 1    
    79   40   42 1    
    80   40  102 1    
    81   41  103 1    
    82   41  104 1    
    83   41  105 1    
    84   42   43 am   BACKBONE|DICT|INTERRES
    85   42  106 1    
    86   43   44 2    
    87   43   45 1    
    88   45   46 1    
    89   45   49 1    
    90   45  107 1    
    91   46   47 1    
    92   46  108 1    
    93   46  109 1    
    94   47   48 1    
    95   48  110 1    
    96   48  111 1    
    97   49   50 am   BACKBONE|DICT|INTERRES
    98   49  112 1    
    99   50   51 2    
   100   50   52 1    
   101   52   53 1    
   102   52   54 1    
   103   52  113 1    
   104   53  114 1    
   105   53  115 1    
   106   53  116 1    
   107   54   55 am   BACKBONE|DICT|INTERRES
   108   54  117 1    
   109   55   56 2    
   110   55   57 1    
   111   57   58 1    
   112   57   59 1    
   113   57  118 1    
   114   58  119 1    
   115   58  120 1    
   116   58  121 1    
   117   59   60 am   BACKBONE|DICT|INTERRES
   118   59  122 1    
   119   60   61 2    
   120   60   62 1    
   121   62   63 1    
   122   62   64 1    
   123   62  123 1    
   124   63  124 1    
   125   63  125 1    
   126   63  126 1    
   127   64   65 am   BACKBONE|DICT|INTERRES
   128   64  127 1    
   129   65   66 2    
@<TRIPOS>SUBSTRUCTURE
     1 UNK         1 GROUP             0       ****    0 ROOT    
