@<TRIPOS>MOLECULE
3R135
127   129    1
SMALL
USER_CHARGES


@<TRIPOS>ATOM
      1 CA        -78.9136   27.7266  -77.3831 C.3       0 UNK        -0.1998 
      2 C         -79.8616   27.4193  -76.2346 C.2       0 UNK         0.4909 
      3 O         -81.0163   27.0647  -76.4763 O.2       0 UNK        -0.5240 
      4 N         -79.3733   27.5488  -74.9918 N.am      1 UNK        -0.4739 
      5 CA        -80.0856   27.3029  -73.7313 C.3       1 UNK         0.0864 
      6 C6        -81.0536   28.4671  -73.3688 C.3       11 UNK        -0.0881 
      7 S7        -81.5378   28.4542  -71.6052 S.3       11 UNK        -0.2682 
      8 C8        -80.3582   29.6323  -70.8587 C.3       11 UNK         0.0289 
      9 C9        -78.9131   29.2458  -71.1417 C.ar      11 UNK        -0.0687 
     10 C10       -78.3843   28.0646  -70.6127 C.ar      11 UNK        -0.0823 
     11 C11       -77.0990   27.6487  -70.9673 C.ar      11 UNK        -0.0830 
     12 C12       -76.3211   28.4521  -71.8045 C.ar      11 UNK        -0.1021 
     13 C13       -76.8262   29.6499  -72.3279 C.ar      11 UNK        -0.0753 
     14 C14       -78.1258   30.0365  -71.9853 C.ar      11 UNK        -0.0933 
     15 C15       -76.0345   30.5444  -73.2877 C.3       11 UNK         0.0166 
     16 S16       -74.4159   29.8963  -73.8343 S.3       11 UNK        -0.2615 
     17 C17       -73.3873   30.1922  -72.3515 C.3       11 UNK        -0.0865 
     18 CA        -72.2244   31.1771  -72.6352 C.3       10 UNK         0.0862 
     19 C         -71.4754   31.5619  -71.3261 C.2       10 UNK         0.5551 
     20 N         -70.1834   31.2866  -71.1906 N.am      10 UNK        -0.7319 
     21 O         -72.0787   32.1301  -70.4193 O.2       10 UNK        -0.5018 
     22 N         -71.3546   30.6622  -73.7024 N.am      10 UNK        -0.4509 
     23 C         -70.6105   31.3957  -74.5332 C.2       10 UNK         0.4899 
     24 O         -70.5433   32.6244  -74.4859 O.2       10 UNK        -0.4839 
     25 CA        -69.8179   30.6455  -75.6213 C.3       9 UNK         0.0222 
     26 CB        -68.3675   30.3882  -75.1673 C.3       9 UNK        -0.1966 
     27 N         -70.4526   29.4139  -76.1227 N.am      9 UNK        -0.4218 
     28 C         -70.6655   28.2458  -75.5006 C.2       9 UNK         0.5020 
     29 O         -70.3898   28.0379  -74.3173 O.2       9 UNK        -0.5274 
     30 CA        -71.3396   27.1440  -76.3406 C.3       8 UNK         0.0270 
     31 CB        -71.1654   25.7455  -75.7198 C.3       8 UNK        -0.1976 
     32 N         -72.7685   27.3944  -76.5398 N.am      8 UNK        -0.4313 
     33 C         -73.2935   28.3490  -77.3236 C.2       8 UNK         0.5041 
     34 O         -72.6091   29.1531  -77.9621 O.2       8 UNK        -0.5577 
     35 CA        -74.8341   28.3920  -77.4264 C.3       7 UNK         0.0284 
     36 CB        -75.3344   29.2168  -78.6321 C.3       7 UNK        -0.1958 
     37 N         -75.4330   27.0507  -77.4153 N.am      7 UNK        -0.4454 
     38 C         -75.2088   26.0544  -78.2854 C.2       7 UNK         0.5089 
     39 O         -74.5631   26.1868  -79.3260 O.2       7 UNK        -0.5125 
     40 CA        -75.7897   24.6674  -77.9352 C.3       6 UNK         0.0408 
     41 CB        -74.7936   23.5387  -78.2732 C.3       6 UNK        -0.1791 
     42 N         -76.2794   24.4955  -76.5569 N.am      6 UNK        -0.4762 
     43 C         -75.5914   24.6305  -75.4088 C.2       6 UNK         0.5007 
     44 O         -74.4553   25.1040  -75.3538 O.2       6 UNK        -0.5032 
     45 CA        -76.2800   24.1860  -74.0972 C.3       5 UNK         0.0783 
     46 C46       -76.5612   25.4048  -73.1882 C.3       11 UNK        -0.0857 
     47 S47       -77.1866   24.9394  -71.5356 S.3       11 UNK        -0.2512 
     48 C48       -76.5661   26.3039  -70.4950 C.3       11 UNK         0.0225 
     49 N         -77.4792   23.3679  -74.3350 N.am      5 UNK        -0.4615 
     50 C         -77.4290   22.0830  -74.7159 C.2       4 UNK         0.5053 
     51 O         -76.3764   21.4634  -74.8745 O.2       4 UNK        -0.5105 
     52 CA        -78.7585   21.3552  -74.9763 C.3       4 UNK         0.0263 
     53 CB        -79.2910   20.7419  -73.6712 C.3       4 UNK        -0.1981 
     54 N         -79.8141   22.1701  -75.5814 N.am      4 UNK        -0.4224 
     55 C         -79.7560   22.8736  -76.7198 C.2       3 UNK         0.4895 
     56 O         -78.7362   22.9918  -77.3982 O.2       3 UNK        -0.5091 
     57 CA        -81.0473   23.5812  -77.1835 C.3       3 UNK         0.0250 
     58 CB        -81.9272   22.6398  -78.0288 C.3       3 UNK        -0.1996 
     59 N         -81.8091   24.2166  -76.0978 N.am      3 UNK        -0.4254 
     60 C         -82.4222   23.6434  -75.0479 C.2       2 UNK         0.5004 
     61 O         -82.5754   22.4261  -74.9313 O.2       2 UNK        -0.5226 
     62 CA        -82.8522   24.5764  -73.8948 C.3       2 UNK         0.0269 
     63 CB        -82.8763   23.8484  -72.5335 C.3       2 UNK        -0.1926 
     64 N         -82.0385   25.7973  -73.7923 N.am      2 UNK        -0.4687 
     65 C         -80.7004   25.8861  -73.6959 C.2       1 UNK         0.5165 
     66 O         -79.9450   24.9120  -73.6492 O.2       1 UNK        -0.5079 
     67 H67       -78.5698   26.8014  -77.8463 H         1 UNK         0.0900 
     68 H68       -79.4234   28.3192  -78.1426 H         1 UNK         0.0900 
     69 H69       -78.0446   28.2916  -77.0466 H         1 UNK         0.0900 
     70 H70       -78.4152   27.8457  -74.8772 H         1 UNK         0.2959 
     71 H71       -79.3018   27.2740  -72.9779 H         1 UNK         0.1079 
     72 H72       -81.9469   28.4592  -73.9950 H         1 UNK         0.0837 
     73 H73       -80.5728   29.4235  -73.5797 H         1 UNK         0.0837 
     74 H74       -80.5189   29.6616  -69.7801 H         1 UNK         0.0685 
     75 H75       -80.5744   30.6355  -71.2298 H         1 UNK         0.0685 
     76 H76       -78.9978   27.4377  -69.9795 H         1 UNK         0.1434 
     77 H77       -75.3297   28.1131  -72.0638 H         1 UNK         0.1329 
     78 H78       -78.5363   30.9469  -72.4009 H         1 UNK         0.1335 
     79 H79       -75.8905   31.5252  -72.8318 H         1 UNK         0.0680 
     80 H80       -76.6391   30.7081  -74.1811 H         1 UNK         0.0680 
     81 H81       -72.9963   29.2337  -72.0050 H         1 UNK         0.1032 
     82 H82       -74.0199   30.5667  -71.5441 H         1 UNK         0.1032 
     83 H83       -72.6709   32.1058  -72.9966 H         1 UNK         0.0461 
     84 H84       -69.7071   31.5446  -70.3406 H         1 UNK         0.3453 
     85 H85       -69.6842   30.8211  -71.9313 H         1 UNK         0.3453 
     86 H86       -71.2880   29.6525  -73.7860 H         1 UNK         0.2984 
     87 H87       -69.7749   31.3151  -76.4819 H         1 UNK         0.0554 
     88 H88       -67.8740   31.3223  -74.8949 H         1 UNK         0.0847 
     89 H89       -67.7781   29.9317  -75.9624 H         1 UNK         0.0847 
     90 H90       -68.3203   29.7332  -74.2968 H         1 UNK         0.0847 
     91 H91       -70.8786   29.4948  -77.0434 H         1 UNK         0.3141 
     92 H92       -70.8541   27.1325  -77.3189 H         1 UNK         0.0743 
     93 H93       -70.1107   25.5140  -75.5653 H         1 UNK         0.0784 
     94 H94       -71.5769   24.9706  -76.3673 H         1 UNK         0.0784 
     95 H95       -71.6631   25.6682  -74.7519 H         1 UNK         0.0784 
     96 H96       -73.3999   26.7580  -76.0631 H         1 UNK         0.3213 
     97 H97       -75.1843   28.8917  -76.5228 H         1 UNK         0.0855 
     98 H98       -74.9594   28.8227  -79.5770 H         1 UNK         0.0814 
     99 H99       -75.0000   30.2524  -78.5595 H         1 UNK         0.0814 
    100 H100      -76.4225   29.2324  -78.6841 H         1 UNK         0.0814 
    101 H101      -75.9473   26.8045  -76.5827 H         1 UNK         0.3105 
    102 H102      -76.6619   24.5408  -78.5780 H         1 UNK         0.0547 
    103 H103      -75.2198   22.5584  -78.0594 H         1 UNK         0.0837 
    104 H104      -73.8686   23.6342  -77.7033 H         1 UNK         0.0837 
    105 H105      -74.5271   23.5483  -79.3308 H         1 UNK         0.0837 
    106 H106      -77.2056   24.0838  -76.4984 H         1 UNK         0.3020 
    107 H107      -75.5485   23.5613  -73.5788 H         1 UNK         0.1245 
    108 H108      -77.2801   26.0772  -73.6556 H         1 UNK         0.0781 
    109 H109      -75.6432   25.9789  -73.0527 H         1 UNK         0.0781 
    110 H110      -75.4748   26.2968  -70.4985 H         1 UNK         0.0836 
    111 H111      -76.8686   26.1294  -69.4614 H         1 UNK         0.0836 
    112 H112      -78.3792   23.8121  -74.1689 H         1 UNK         0.3022 
    113 H113      -78.5486   20.5426  -75.6745 H         1 UNK         0.0747 
    114 H114      -78.5401   20.1046  -73.2016 H         1 UNK         0.0793 
    115 H115      -79.5645   21.5131  -72.9492 H         1 UNK         0.0793 
    116 H116      -80.1716   20.1248  -73.8519 H         1 UNK         0.0793 
    117 H117      -80.7212   22.1426  -75.1231 H         1 UNK         0.3047 
    118 H118      -80.7323   24.4018  -77.8308 H         1 UNK         0.0822 
    119 H119      -82.8119   23.1548  -78.4038 H         1 UNK         0.0807 
    120 H120      -82.2601   21.7688  -77.4633 H         1 UNK         0.0807 
    121 H121      -81.3762   22.2698  -78.8944 H         1 UNK         0.0807 
    122 H122      -81.7129   25.2289  -76.0713 H         1 UNK         0.2946 
    123 H123      -83.8706   24.8929  -74.1263 H         1 UNK         0.1144 
    124 H124      -83.1898   24.5170  -71.7317 H         1 UNK         0.0793 
    125 H125      -81.8948   23.4499  -72.2727 H         1 UNK         0.0793 
    126 H126      -83.5755   23.0110  -72.5462 H         1 UNK         0.0793 
    127 H127      -82.5535   26.6647  -73.8520 H         1 UNK         0.2896 
@<TRIPOS>BOND
     1    1    2 1    
     2    1   67 1    
     3    1   68 1    
     4    1   69 1    
     5    2    3 2    
     6    2    4 am   BACKBONE|DICT|INTERRES
     7    4    5 1    
     8    4   70 1    
     9    5    6 1    
    10    5   65 1    
    11    5   71 1    
    12    6    7 1    
    13    6   72 1    
    14    6   73 1    
    15    7    8 1    
    16    8    9 1    
    17    8   74 1    
    18    8   75 1    
    19    9   10 ar   
    20    9   14 ar   
    21   10   11 ar   
    22   10   76 1    
    23   11   12 ar   
    24   11   48 1    
    25   12   13 ar   
    26   12   77 1    
    27   13   14 ar   
    28   13   15 1    
    29   14   78 1    
    30   15   16 1    
    31   15   79 1    
    32   15   80 1    
    33   16   17 1    
    34   17   18 1    
    35   17   81 1    
    36   17   82 1    
    37   18   19 1    
    38   18   22 1    
    39   18   83 1    
    40   19   20 am   BACKBONE|DICT|INTERRES
    41   19   21 2    
    42   20   84 1    
    43   20   85 1    
    44   22   23 am   BACKBONE|DICT|INTERRES
    45   22   86 1    
    46   23   24 2    
    47   23   25 1    
    48   25   26 1    
    49   25   27 1    
    50   25   87 1    
    51   26   88 1    
    52   26   89 1    
    53   26   90 1    
    54   27   28 am   BACKBONE|DICT|INTERRES
    55   27   91 1    
    56   28   29 2    
    57   28   30 1    
    58   30   31 1    
    59   30   32 1    
    60   30   92 1    
    61   31   93 1    
    62   31   94 1    
    63   31   95 1    
    64   32   33 am   BACKBONE|DICT|INTERRES
    65   32   96 1    
    66   33   34 2    
    67   33   35 1    
    68   35   36 1    
    69   35   37 1    
    70   35   97 1    
    71   36   98 1    
    72   36   99 1    
    73   36  100 1    
    74   37   38 am   BACKBONE|DICT|INTERRES
    75   37  101 1    
    76   38   39 2    
    77   38   40 1    
    78   40   41 1    
    79   40   42 1    
    80   40  102 1    
    81   41  103 1    
    82   41  104 1    
    83   41  105 1    
    84   42   43 am   BACKBONE|DICT|INTERRES
    85   42  106 1    
    86   43   44 2    
    87   43   45 1    
    88   45   46 1    
    89   45   49 1    
    90   45  107 1    
    91   46   47 1    
    92   46  108 1    
    93   46  109 1    
    94   47   48 1    
    95   48  110 1    
    96   48  111 1    
    97   49   50 am   BACKBONE|DICT|INTERRES
    98   49  112 1    
    99   50   51 2    
   100   50   52 1    
   101   52   53 1    
   102   52   54 1    
   103   52  113 1    
   104   53  114 1    
   105   53  115 1    
   106   53  116 1    
   107   54   55 am   BACKBONE|DICT|INTERRES
   108   54  117 1    
   109   55   56 2    
   110   55   57 1    
   111   57   58 1    
   112   57   59 1    
   113   57  118 1    
   114   58  119 1    
   115   58  120 1    
   116   58  121 1    
   117   59   60 am   BACKBONE|DICT|INTERRES
   118   59  122 1    
   119   60   61 2    
   120   60   62 1    
   121   62   63 1    
   122   62   64 1    
   123   62  123 1    
   124   63  124 1    
   125   63  125 1    
   126   63  126 1    
   127   64   65 am   BACKBONE|DICT|INTERRES
   128   64  127 1    
   129   65   66 2    
@<TRIPOS>SUBSTRUCTURE
     1 UNK         1 GROUP             0       ****    0 ROOT    
