@<TRIPOS>MOLECULE
3R135
127   129    1
SMALL
USER_CHARGES


@<TRIPOS>ATOM
      1 CA        -83.1078   26.8426  -70.3913 C.3       0 UNK        -0.1998 
      2 C         -82.3453   26.9154  -71.7048 C.2       0 UNK         0.4909 
      3 O         -81.3419   26.2218  -71.8633 O.2       0 UNK        -0.5240 
      4 N         -82.8224   27.7417  -72.6467 N.am      1 UNK        -0.4739 
      5 CA        -82.2633   28.0367  -73.9795 C.3       1 UNK         0.0864 
      6 C6        -80.8304   28.6313  -73.9459 C.3       11 UNK        -0.0881 
      7 S7        -80.7759   30.2674  -73.1370 S.3       11 UNK        -0.2682 
      8 C8        -79.9731   29.9005  -71.5411 C.3       11 UNK         0.0289 
      9 C9        -78.5675   29.3365  -71.7037 C.ar      11 UNK        -0.0687 
     10 C10       -78.2526   28.0778  -71.1822 C.ar      11 UNK        -0.0823 
     11 C11       -76.9694   27.5416  -71.3403 C.ar      11 UNK        -0.0830 
     12 C12       -76.0004   28.2847  -72.0207 C.ar      11 UNK        -0.1021 
     13 C13       -76.2950   29.5509  -72.5320 C.ar      11 UNK        -0.0753 
     14 C14       -77.5806   30.0734  -72.3662 C.ar      11 UNK        -0.0933 
     15 C15       -75.2257   30.3517  -73.2607 C.3       11 UNK         0.0166 
     16 S16       -73.9002   30.8653  -72.1213 S.3       11 UNK        -0.2615 
     17 C17       -73.1573   32.2846  -73.0028 C.3       11 UNK        -0.0865 
     18 CA        -71.8125   31.9755  -73.7115 C.3       10 UNK         0.0862 
     19 C         -70.6480   31.6820  -72.7174 C.2       10 UNK         0.5551 
     20 N         -69.9212   30.5763  -72.8368 N.am      10 UNK        -0.7319 
     21 O         -70.3857   32.4885  -71.8283 O.2       10 UNK        -0.5018 
     22 N         -71.9842   30.9757  -74.7744 N.am      10 UNK        -0.4509 
     23 C         -71.2420   30.9058  -75.8854 C.2       10 UNK         0.4899 
     24 O         -70.3780   31.7319  -76.1847 O.2       10 UNK        -0.4839 
     25 CA        -71.5164   29.7052  -76.8122 C.3       9 UNK         0.0222 
     26 CB        -70.3707   29.4511  -77.8144 C.3       9 UNK        -0.1966 
     27 N         -71.8497   28.4669  -76.0952 N.am      9 UNK        -0.4218 
     28 C         -71.0973   27.8254  -75.1836 C.2       9 UNK         0.5020 
     29 O         -70.0347   28.2670  -74.7438 O.2       9 UNK        -0.5274 
     30 CA        -71.6103   26.4719  -74.6490 C.3       8 UNK         0.0270 
     31 CB        -72.1713   26.6492  -73.2291 C.3       8 UNK        -0.1976 
     32 N         -72.6295   25.8453  -75.4980 N.am      8 UNK        -0.4313 
     33 C         -72.4176   25.4014  -76.7481 C.2       8 UNK         0.5041 
     34 O         -71.2987   25.3296  -77.2581 O.2       8 UNK        -0.5577 
     35 CA        -73.6438   25.0086  -77.6003 C.3       7 UNK         0.0284 
     36 CB        -73.7460   23.4783  -77.7096 C.3       7 UNK        -0.1958 
     37 N         -74.9278   25.5400  -77.1289 N.am      7 UNK        -0.4454 
     38 C         -75.2240   26.8265  -76.8903 C.2       7 UNK         0.5089 
     39 O         -74.4620   27.7623  -77.1355 O.2       7 UNK        -0.5125 
     40 CA        -76.5579   27.1131  -76.1770 C.3       6 UNK         0.0408 
     41 CB        -77.6501   27.4674  -77.1959 C.3       6 UNK        -0.1791 
     42 N         -77.0305   26.0189  -75.3211 N.am      6 UNK        -0.4762 
     43 C         -76.3573   25.4661  -74.2985 C.2       6 UNK         0.5007 
     44 O         -75.2073   25.7760  -73.9853 O.2       6 UNK        -0.5032 
     45 CA        -77.0783   24.3348  -73.5454 C.3       5 UNK         0.0783 
     46 C46       -78.2503   24.8729  -72.6778 C.3       11 UNK        -0.0857 
     47 S47       -77.8795   24.8966  -70.8934 S.3       11 UNK        -0.2512 
     48 C48       -76.5894   26.1821  -70.7579 C.3       11 UNK         0.0225 
     49 N         -77.5275   23.3328  -74.5111 N.am      5 UNK        -0.4615 
     50 C         -76.7589   22.3536  -75.0054 C.2       4 UNK         0.5053 
     51 O         -75.6129   22.1245  -74.6200 O.2       4 UNK        -0.5105 
     52 CA        -77.3604   21.4799  -76.1222 C.3       4 UNK         0.0263 
     53 CB        -77.9008   20.1640  -75.5400 C.3       4 UNK        -0.1981 
     54 N         -78.4264   22.1447  -76.8771 N.am      4 UNK        -0.4224 
     55 C         -78.2457   23.1966  -77.6883 C.2       3 UNK         0.4895 
     56 O         -77.1493   23.7038  -77.9215 O.2       3 UNK        -0.5091 
     57 CA        -79.5139   23.8235  -78.2933 C.3       3 UNK         0.0250 
     58 CB        -79.9193   23.0863  -79.5794 C.3       3 UNK        -0.1996 
     59 N         -80.6550   23.8688  -77.3685 N.am      3 UNK        -0.4254 
     60 C         -80.6507   24.4878  -76.1795 C.2       2 UNK         0.5004 
     61 O         -79.6562   25.0352  -75.6967 O.2       2 UNK        -0.5226 
     62 CA        -81.9537   24.4415  -75.3670 C.3       2 UNK         0.0269 
     63 CB        -81.9794   23.1940  -74.4693 C.3       2 UNK        -0.1926 
     64 N         -82.0810   25.6324  -74.5268 N.am      2 UNK        -0.4687 
     65 C         -82.3416   26.8634  -74.9812 C.2       1 UNK         0.5165 
     66 O         -82.6446   27.0977  -76.1526 O.2       1 UNK        -0.5079 
     67 H67       -83.4618   25.8265  -70.2197 H         1 UNK         0.0900 
     68 H68       -83.9696   27.5097  -70.3808 H         1 UNK         0.0900 
     69 H69       -82.4541   27.1198  -69.5648 H         1 UNK         0.0900 
     70 H70       -83.6707   28.2508  -72.4402 H         1 UNK         0.2959 
     71 H71       -82.9184   28.8049  -74.3945 H         1 UNK         0.1079 
     72 H72       -80.1315   27.9417  -73.4710 H         1 UNK         0.0837 
     73 H73       -80.4531   28.7741  -74.9606 H         1 UNK         0.0837 
     74 H74       -80.6061   29.2165  -70.9750 H         1 UNK         0.0685 
     75 H75       -79.9179   30.8199  -70.9571 H         1 UNK         0.0685 
     76 H76       -79.0110   27.5098  -70.6606 H         1 UNK         0.1434 
     77 H77       -75.0049   27.8829  -72.1444 H         1 UNK         0.1329 
     78 H78       -77.8216   31.0511  -72.7606 H         1 UNK         0.1335 
     79 H79       -74.8029   29.7488  -74.0657 H         1 UNK         0.0680 
     80 H80       -75.6716   31.2299  -73.7299 H         1 UNK         0.0680 
     81 H81       -73.0209   33.0920  -72.2808 H         1 UNK         0.1032 
     82 H82       -73.8682   32.6785  -73.7302 H         1 UNK         0.1032 
     83 H83       -71.5196   32.9074  -74.1991 H         1 UNK         0.0461 
     84 H84       -70.0960   29.9051  -73.5766 H         1 UNK         0.3453 
     85 H85       -69.1696   30.4137  -72.1863 H         1 UNK         0.3453 
     86 H86       -72.6455   30.2383  -74.5851 H         1 UNK         0.2984 
     87 H87       -72.4052   29.9664  -77.3883 H         1 UNK         0.0554 
     88 H88       -70.5979   28.6114  -78.4713 H         1 UNK         0.0847 
     89 H89       -69.4309   29.2332  -77.3056 H         1 UNK         0.0847 
     90 H90       -70.2031   30.3216  -78.4498 H         1 UNK         0.0847 
     91 H91       -72.7332   28.0439  -76.3723 H         1 UNK         0.3141 
     92 H92       -70.7552   25.7949  -74.5996 H         1 UNK         0.0743 
     93 H93       -73.0109   27.3444  -73.2169 H         1 UNK         0.0784 
     94 H94       -72.5134   25.7014  -72.8129 H         1 UNK         0.0784 
     95 H95       -71.4115   27.0456  -72.5540 H         1 UNK         0.0784 
     96 H96       -73.5770   25.8336  -75.1283 H         1 UNK         0.3213 
     97 H97       -73.4777   25.4144  -78.6000 H         1 UNK         0.0855 
     98 H98       -73.9673   23.0206  -76.7447 H         1 UNK         0.0814 
     99 H99       -72.8109   23.0466  -78.0692 H         1 UNK         0.0814 
    100 H100      -74.5262   23.1804  -78.4101 H         1 UNK         0.0814 
    101 H101      -75.6628   24.8589  -76.9715 H         1 UNK         0.3105 
    102 H102      -76.4014   27.9780  -75.5291 H         1 UNK         0.0547 
    103 H103      -77.3560   28.3263  -77.8005 H         1 UNK         0.0837 
    104 H104      -77.8438   26.6393  -77.8775 H         1 UNK         0.0837 
    105 H105      -78.5881   27.7226  -76.7023 H         1 UNK         0.0837 
    106 H106      -77.9757   25.6827  -75.5034 H         1 UNK         0.3020 
    107 H107      -76.3407   23.8629  -72.8918 H         1 UNK         0.1245 
    108 H108      -78.5960   25.8602  -72.9913 H         1 UNK         0.0781 
    109 H109      -79.1275   24.2338  -72.7873 H         1 UNK         0.0781 
    110 H110      -76.3480   26.3172  -69.7030 H         1 UNK         0.0836 
    111 H111      -75.6799   25.8064  -71.2293 H         1 UNK         0.0836 
    112 H112      -78.4320   23.5041  -74.9313 H         1 UNK         0.3022 
    113 H113      -76.5535   21.2420  -76.8190 H         1 UNK         0.0747 
    114 H114      -78.2573   19.4982  -76.3262 H         1 UNK         0.0793 
    115 H115      -77.1212   19.6295  -74.9949 H         1 UNK         0.0793 
    116 H116      -78.7237   20.3368  -74.8451 H         1 UNK         0.0793 
    117 H117      -79.3651   21.7969  -76.7459 H         1 UNK         0.3047 
    118 H118      -79.2715   24.8541  -78.5581 H         1 UNK         0.0822 
    119 H119      -80.7505   23.5853  -80.0782 H         1 UNK         0.0807 
    120 H120      -80.2160   22.0556  -79.3808 H         1 UNK         0.0807 
    121 H121      -79.0909   23.0559  -80.2889 H         1 UNK         0.0807 
    122 H122      -81.5074   23.4286  -77.6853 H         1 UNK         0.2946 
    123 H123      -82.8017   24.4074  -76.0548 H         1 UNK         0.1144 
    124 H124      -82.9061   23.1382  -73.8977 H         1 UNK         0.0793 
    125 H125      -81.1505   23.1884  -73.7605 H         1 UNK         0.0793 
    126 H126      -81.9103   22.2805  -75.0613 H         1 UNK         0.0793 
    127 H127      -81.7780   25.5581  -73.5587 H         1 UNK         0.2896 
@<TRIPOS>BOND
     1    1    2 1    
     2    1   67 1    
     3    1   68 1    
     4    1   69 1    
     5    2    3 2    
     6    2    4 am   BACKBONE|DICT|INTERRES
     7    4    5 1    
     8    4   70 1    
     9    5    6 1    
    10    5   65 1    
    11    5   71 1    
    12    6    7 1    
    13    6   72 1    
    14    6   73 1    
    15    7    8 1    
    16    8    9 1    
    17    8   74 1    
    18    8   75 1    
    19    9   10 ar   
    20    9   14 ar   
    21   10   11 ar   
    22   10   76 1    
    23   11   12 ar   
    24   11   48 1    
    25   12   13 ar   
    26   12   77 1    
    27   13   14 ar   
    28   13   15 1    
    29   14   78 1    
    30   15   16 1    
    31   15   79 1    
    32   15   80 1    
    33   16   17 1    
    34   17   18 1    
    35   17   81 1    
    36   17   82 1    
    37   18   19 1    
    38   18   22 1    
    39   18   83 1    
    40   19   20 am   BACKBONE|DICT|INTERRES
    41   19   21 2    
    42   20   84 1    
    43   20   85 1    
    44   22   23 am   BACKBONE|DICT|INTERRES
    45   22   86 1    
    46   23   24 2    
    47   23   25 1    
    48   25   26 1    
    49   25   27 1    
    50   25   87 1    
    51   26   88 1    
    52   26   89 1    
    53   26   90 1    
    54   27   28 am   BACKBONE|DICT|INTERRES
    55   27   91 1    
    56   28   29 2    
    57   28   30 1    
    58   30   31 1    
    59   30   32 1    
    60   30   92 1    
    61   31   93 1    
    62   31   94 1    
    63   31   95 1    
    64   32   33 am   BACKBONE|DICT|INTERRES
    65   32   96 1    
    66   33   34 2    
    67   33   35 1    
    68   35   36 1    
    69   35   37 1    
    70   35   97 1    
    71   36   98 1    
    72   36   99 1    
    73   36  100 1    
    74   37   38 am   BACKBONE|DICT|INTERRES
    75   37  101 1    
    76   38   39 2    
    77   38   40 1    
    78   40   41 1    
    79   40   42 1    
    80   40  102 1    
    81   41  103 1    
    82   41  104 1    
    83   41  105 1    
    84   42   43 am   BACKBONE|DICT|INTERRES
    85   42  106 1    
    86   43   44 2    
    87   43   45 1    
    88   45   46 1    
    89   45   49 1    
    90   45  107 1    
    91   46   47 1    
    92   46  108 1    
    93   46  109 1    
    94   47   48 1    
    95   48  110 1    
    96   48  111 1    
    97   49   50 am   BACKBONE|DICT|INTERRES
    98   49  112 1    
    99   50   51 2    
   100   50   52 1    
   101   52   53 1    
   102   52   54 1    
   103   52  113 1    
   104   53  114 1    
   105   53  115 1    
   106   53  116 1    
   107   54   55 am   BACKBONE|DICT|INTERRES
   108   54  117 1    
   109   55   56 2    
   110   55   57 1    
   111   57   58 1    
   112   57   59 1    
   113   57  118 1    
   114   58  119 1    
   115   58  120 1    
   116   58  121 1    
   117   59   60 am   BACKBONE|DICT|INTERRES
   118   59  122 1    
   119   60   61 2    
   120   60   62 1    
   121   62   63 1    
   122   62   64 1    
   123   62  123 1    
   124   63  124 1    
   125   63  125 1    
   126   63  126 1    
   127   64   65 am   BACKBONE|DICT|INTERRES
   128   64  127 1    
   129   65   66 2    
@<TRIPOS>SUBSTRUCTURE
     1 UNK         1 GROUP             0       ****    0 ROOT    
