@<TRIPOS>MOLECULE
3R135
127   129    1
SMALL
USER_CHARGES


@<TRIPOS>ATOM
      1 CA        -80.5564   25.8610  -69.5162 C.3       0 UNK        -0.1998 
      2 C         -81.5635   26.2694  -70.5806 C.2       0 UNK         0.4909 
      3 O         -82.7220   25.8574  -70.5200 O.2       0 UNK        -0.5240 
      4 N         -81.1281   27.0720  -71.5598 N.am      1 UNK        -0.4739 
      5 CA        -81.9511   27.5560  -72.6772 C.3       1 UNK         0.0864 
      6 C6        -81.3780   28.8671  -73.2672 C.3       11 UNK        -0.0881 
      7 S7        -81.5505   30.3056  -72.1491 S.3       11 UNK        -0.2682 
      8 C8        -80.0930   30.2248  -71.0462 C.3       11 UNK         0.0289 
      9 C9        -78.7896   29.8896  -71.7610 C.ar      11 UNK        -0.0687 
     10 C10       -77.9871   28.8476  -71.2908 C.ar      11 UNK        -0.0823 
     11 C11       -76.8223   28.4853  -71.9710 C.ar      11 UNK        -0.0830 
     12 C12       -76.4511   29.1891  -73.1224 C.ar      11 UNK        -0.1021 
     13 C13       -77.2273   30.2591  -73.5895 C.ar      11 UNK        -0.0753 
     14 C14       -78.3900   30.6039  -72.8945 C.ar      11 UNK        -0.0933 
     15 C15       -76.8876   31.0427  -74.8593 C.3       11 UNK         0.0166 
     16 S16       -75.1471   30.9765  -75.4014 S.3       11 UNK        -0.2615 
     17 C17       -74.3124   31.9240  -74.0908 C.3       11 UNK        -0.0865 
     18 CA        -72.7777   31.6967  -74.1005 C.3       10 UNK         0.0862 
     19 C         -72.0686   32.7398  -73.1998 C.2       10 UNK         0.5551 
     20 N         -71.7785   33.9197  -73.7298 N.am      10 UNK        -0.7319 
     21 O         -71.8068   32.5024  -72.0212 O.2       10 UNK        -0.5018 
     22 N         -72.4135   30.3426  -73.6625 N.am      10 UNK        -0.4509 
     23 C         -71.9811   29.3423  -74.4385 C.2       10 UNK         0.4899 
     24 O         -71.9273   29.3961  -75.6675 O.2       10 UNK        -0.4839 
     25 CA        -71.4484   28.0931  -73.7165 C.3       9 UNK         0.0222 
     26 CB        -71.8976   27.9671  -72.2451 C.3       9 UNK        -0.1966 
     27 N         -71.8116   26.8727  -74.4404 N.am      9 UNK        -0.4218 
     28 C         -70.9617   25.8726  -74.7070 C.2       9 UNK         0.5020 
     29 O         -69.7569   25.9075  -74.4479 O.2       9 UNK        -0.5274 
     30 CA        -71.5404   24.5876  -75.3207 C.3       8 UNK         0.0270 
     31 CB        -72.0825   23.6729  -74.2099 C.3       8 UNK        -0.1976 
     32 N         -72.5805   24.8087  -76.3276 N.am      8 UNK        -0.4313 
     33 C         -72.3513   25.2682  -77.5660 C.2       8 UNK         0.5041 
     34 O         -71.2410   25.6120  -77.9743 O.2       8 UNK        -0.5577 
     35 CA        -73.5525   25.3226  -78.5269 C.3       7 UNK         0.0284 
     36 CB        -73.8542   23.9285  -79.1009 C.3       7 UNK        -0.1958 
     37 N         -74.7539   25.8598  -77.8902 N.am      7 UNK        -0.4454 
     38 C         -74.9375   27.1535  -77.5957 C.2       7 UNK         0.5089 
     39 O         -74.1671   28.0482  -77.9419 O.2       7 UNK        -0.5125 
     40 CA        -76.1829   27.5104  -76.7633 C.3       6 UNK         0.0408 
     41 CB        -77.3800   27.8344  -77.6689 C.3       6 UNK        -0.1791 
     42 N         -76.5634   26.4780  -75.7978 N.am      6 UNK        -0.4762 
     43 C         -75.7916   26.0525  -74.7864 C.2       6 UNK         0.5007 
     44 O         -74.6591   26.4769  -74.5525 O.2       6 UNK        -0.5032 
     45 CA        -76.3758   24.9158  -73.9291 C.3       5 UNK         0.0783 
     46 C46       -77.4659   25.4448  -72.9554 C.3       11 UNK        -0.0857 
     47 S47       -76.8448   25.7644  -71.2726 S.3       11 UNK        -0.2512 
     48 C48       -75.9535   27.3469  -71.4504 C.3       11 UNK         0.0225 
     49 N         -76.8773   23.8385  -74.7883 N.am      5 UNK        -0.4615 
     50 C         -76.1139   23.0726  -75.5811 C.2       4 UNK         0.5053 
     51 O         -74.8886   23.1536  -75.6340 O.2       4 UNK        -0.5105 
     52 CA        -76.8417   22.0850  -76.5087 C.3       4 UNK         0.0263 
     53 CB        -77.1303   20.7670  -75.7733 C.3       4 UNK        -0.1981 
     54 N         -78.0898   22.6321  -77.0449 N.am      4 UNK        -0.4224 
     55 C         -78.1649   23.6881  -77.8690 C.2       3 UNK         0.4895 
     56 O         -77.1823   24.2614  -78.3371 O.2       3 UNK        -0.5091 
     57 CA        -79.5731   24.2306  -78.1724 C.3       3 UNK         0.0250 
     58 CB        -80.1696   23.5277  -79.4019 C.3       3 UNK        -0.1996 
     59 N         -80.4962   24.1096  -77.0365 N.am      3 UNK        -0.4254 
     60 C         -80.3185   24.7079  -75.8502 C.2       2 UNK         0.5004 
     61 O         -79.3624   25.4446  -75.5923 O.2       2 UNK        -0.5226 
     62 CA        -81.3252   24.3493  -74.7476 C.3       2 UNK         0.0269 
     63 CB        -80.9314   23.0208  -74.0790 C.3       2 UNK        -0.1926 
     64 N         -81.3651   25.3936  -73.7248 N.am      2 UNK        -0.4687 
     65 C         -82.1235   26.4959  -73.7900 C.2       1 UNK         0.5165 
     66 O         -82.9397   26.6987  -74.6909 O.2       1 UNK        -0.5079 
     67 H67       -80.4834   24.7750  -69.4659 H         1 UNK         0.0900 
     68 H68       -80.8733   26.2270  -68.5401 H         1 UNK         0.0900 
     69 H69       -79.5617   26.2557  -69.7201 H         1 UNK         0.0900 
     70 H70       -80.1680   27.3838  -71.5640 H         1 UNK         0.2959 
     71 H71       -82.9556   27.7655  -72.3019 H         1 UNK         0.1079 
     72 H72       -80.3421   28.7318  -73.5801 H         1 UNK         0.0837 
     73 H73       -81.9166   29.1385  -74.1776 H         1 UNK         0.0837 
     74 H74       -79.9809   31.1875  -70.5459 H         1 UNK         0.0685 
     75 H75       -80.3001   29.4979  -70.2596 H         1 UNK         0.0685 
     76 H76       -78.2697   28.3063  -70.3985 H         1 UNK         0.1434 
     77 H77       -75.5543   28.9000  -73.6521 H         1 UNK         0.1329 
     78 H78       -79.0091   31.4142  -73.2552 H         1 UNK         0.1335 
     79 H79       -77.5072   30.6554  -75.6692 H         1 UNK         0.0680 
     80 H80       -77.1647   32.0907  -74.7333 H         1 UNK         0.0680 
     81 H81       -74.7323   31.6582  -73.1189 H         1 UNK         0.1032 
     82 H82       -74.5516   32.9774  -74.2497 H         1 UNK         0.1032 
     83 H83       -72.4079   31.8549  -75.1159 H         1 UNK         0.0461 
     84 H84       -71.9944   34.1270  -74.6928 H         1 UNK         0.3453 
     85 H85       -71.3273   34.6164  -73.1573 H         1 UNK         0.3453 
     86 H86       -72.3587   30.2354  -72.6592 H         1 UNK         0.2984 
     87 H87       -70.3631   28.2107  -73.7166 H         1 UNK         0.0554 
     88 H88       -71.5471   27.0336  -71.8042 H         1 UNK         0.0847 
     89 H89       -72.9821   27.9891  -72.1528 H         1 UNK         0.0847 
     90 H90       -71.4927   28.7731  -71.6320 H         1 UNK         0.0847 
     91 H91       -72.7947   26.7711  -74.6879 H         1 UNK         0.3141 
     92 H92       -70.7160   24.0621  -75.8079 H         1 UNK         0.0743 
     93 H93       -72.9475   24.1133  -73.7124 H         1 UNK         0.0784 
     94 H94       -72.3814   22.7025  -74.6065 H         1 UNK         0.0784 
     95 H95       -71.3244   23.4895  -73.4472 H         1 UNK         0.0784 
     96 H96       -73.5157   24.4930  -76.0861 H         1 UNK         0.3213 
     97 H97       -73.2842   25.9774  -79.3590 H         1 UNK         0.0855 
     98 H98       -74.1429   23.2222  -78.3219 H         1 UNK         0.0814 
     99 H99       -72.9795   23.5176  -79.6066 H         1 UNK         0.0814 
    100 H100      -74.6631   23.9677  -79.8308 H         1 UNK         0.0814 
    101 H101      -75.4955   25.2045  -77.6656 H         1 UNK         0.3105 
    102 H102      -75.9439   28.4030  -76.1882 H         1 UNK         0.0547 
    103 H103      -77.1433   28.6583  -78.3434 H         1 UNK         0.0837 
    104 H104      -77.6623   26.9803  -78.2841 H         1 UNK         0.0837 
    105 H105      -78.2510   28.1324  -77.0849 H         1 UNK         0.0837 
    106 H106      -77.4942   26.0799  -75.8907 H         1 UNK         0.3020 
    107 H107      -75.5528   24.4926  -73.3481 H         1 UNK         0.1245 
    108 H108      -78.2498   24.6966  -72.8348 H         1 UNK         0.0781 
    109 H109      -77.9820   26.3288  -73.3367 H         1 UNK         0.0781 
    110 H110      -75.0924   27.1873  -72.0959 H         1 UNK         0.0836 
    111 H111      -75.5508   27.6315  -70.4775 H         1 UNK         0.0836 
    112 H112      -77.8802   23.7664  -74.8697 H         1 UNK         0.3022 
    113 H113      -76.1794   21.8708  -77.3503 H         1 UNK         0.0747 
    114 H114      -77.5751   20.0292  -76.4413 H         1 UNK         0.0793 
    115 H115      -76.2103   20.3318  -75.3800 H         1 UNK         0.0793 
    116 H116      -77.8086   20.9110  -74.9311 H         1 UNK         0.0793 
    117 H117      -78.9497   22.2104  -76.7270 H         1 UNK         0.3047 
    118 H118      -79.4713   25.2930  -78.4026 H         1 UNK         0.0822 
    119 H119      -81.1281   23.9645  -79.6829 H         1 UNK         0.0807 
    120 H120      -80.3236   22.4623  -79.2262 H         1 UNK         0.0807 
    121 H121      -79.5077   23.6234  -80.2640 H         1 UNK         0.0807 
    122 H122      -81.3008   23.5133  -77.1696 H         1 UNK         0.2946 
    123 H123      -82.3159   24.2406  -75.1957 H         1 UNK         0.1144 
    124 H124      -79.9377   23.0652  -73.6326 H         1 UNK         0.0793 
    125 H125      -80.9300   22.2013  -74.7988 H         1 UNK         0.0793 
    126 H126      -81.6369   22.7524  -73.2922 H         1 UNK         0.0793 
    127 H127      -80.6998   25.3217  -72.9704 H         1 UNK         0.2896 
@<TRIPOS>BOND
     1    1    2 1    
     2    1   67 1    
     3    1   68 1    
     4    1   69 1    
     5    2    3 2    
     6    2    4 am   BACKBONE|DICT|INTERRES
     7    4    5 1    
     8    4   70 1    
     9    5    6 1    
    10    5   65 1    
    11    5   71 1    
    12    6    7 1    
    13    6   72 1    
    14    6   73 1    
    15    7    8 1    
    16    8    9 1    
    17    8   74 1    
    18    8   75 1    
    19    9   10 ar   
    20    9   14 ar   
    21   10   11 ar   
    22   10   76 1    
    23   11   12 ar   
    24   11   48 1    
    25   12   13 ar   
    26   12   77 1    
    27   13   14 ar   
    28   13   15 1    
    29   14   78 1    
    30   15   16 1    
    31   15   79 1    
    32   15   80 1    
    33   16   17 1    
    34   17   18 1    
    35   17   81 1    
    36   17   82 1    
    37   18   19 1    
    38   18   22 1    
    39   18   83 1    
    40   19   20 am   BACKBONE|DICT|INTERRES
    41   19   21 2    
    42   20   84 1    
    43   20   85 1    
    44   22   23 am   BACKBONE|DICT|INTERRES
    45   22   86 1    
    46   23   24 2    
    47   23   25 1    
    48   25   26 1    
    49   25   27 1    
    50   25   87 1    
    51   26   88 1    
    52   26   89 1    
    53   26   90 1    
    54   27   28 am   BACKBONE|DICT|INTERRES
    55   27   91 1    
    56   28   29 2    
    57   28   30 1    
    58   30   31 1    
    59   30   32 1    
    60   30   92 1    
    61   31   93 1    
    62   31   94 1    
    63   31   95 1    
    64   32   33 am   BACKBONE|DICT|INTERRES
    65   32   96 1    
    66   33   34 2    
    67   33   35 1    
    68   35   36 1    
    69   35   37 1    
    70   35   97 1    
    71   36   98 1    
    72   36   99 1    
    73   36  100 1    
    74   37   38 am   BACKBONE|DICT|INTERRES
    75   37  101 1    
    76   38   39 2    
    77   38   40 1    
    78   40   41 1    
    79   40   42 1    
    80   40  102 1    
    81   41  103 1    
    82   41  104 1    
    83   41  105 1    
    84   42   43 am   BACKBONE|DICT|INTERRES
    85   42  106 1    
    86   43   44 2    
    87   43   45 1    
    88   45   46 1    
    89   45   49 1    
    90   45  107 1    
    91   46   47 1    
    92   46  108 1    
    93   46  109 1    
    94   47   48 1    
    95   48  110 1    
    96   48  111 1    
    97   49   50 am   BACKBONE|DICT|INTERRES
    98   49  112 1    
    99   50   51 2    
   100   50   52 1    
   101   52   53 1    
   102   52   54 1    
   103   52  113 1    
   104   53  114 1    
   105   53  115 1    
   106   53  116 1    
   107   54   55 am   BACKBONE|DICT|INTERRES
   108   54  117 1    
   109   55   56 2    
   110   55   57 1    
   111   57   58 1    
   112   57   59 1    
   113   57  118 1    
   114   58  119 1    
   115   58  120 1    
   116   58  121 1    
   117   59   60 am   BACKBONE|DICT|INTERRES
   118   59  122 1    
   119   60   61 2    
   120   60   62 1    
   121   62   63 1    
   122   62   64 1    
   123   62  123 1    
   124   63  124 1    
   125   63  125 1    
   126   63  126 1    
   127   64   65 am   BACKBONE|DICT|INTERRES
   128   64  127 1    
   129   65   66 2    
@<TRIPOS>SUBSTRUCTURE
     1 UNK         1 GROUP             0       ****    0 ROOT    
