@<TRIPOS>MOLECULE
3R135
127   129    1
SMALL
USER_CHARGES


@<TRIPOS>ATOM
      1 CA        -81.1395   30.8790  -78.2954 C.3       0 UNK        -0.1998 
      2 C         -80.5114   29.7675  -77.4679 C.2       0 UNK         0.4909 
      3 O         -80.0668   28.7644  -78.0271 O.2       0 UNK        -0.5240 
      4 N         -80.4631   29.9423  -76.1416 N.am      1 UNK        -0.4739 
      5 CA        -79.9325   28.9629  -75.1879 C.3       1 UNK         0.0864 
      6 C6        -79.7171   29.5818  -73.7849 C.3       11 UNK        -0.0881 
      7 S7        -78.5167   30.9551  -73.7816 S.3       11 UNK        -0.2682 
      8 C8        -76.9282   30.0747  -73.9168 C.3       11 UNK         0.0289 
      9 C9        -76.6661   29.1463  -72.7403 C.ar      11 UNK        -0.0687 
     10 C10       -76.8210   27.7633  -72.8836 C.ar      11 UNK        -0.0823 
     11 C11       -76.5592   26.9070  -71.8098 C.ar      11 UNK        -0.0830 
     12 C12       -76.1335   27.4436  -70.5909 C.ar      11 UNK        -0.1021 
     13 C13       -75.9724   28.8234  -70.4364 C.ar      11 UNK        -0.0753 
     14 C14       -76.2467   29.6703  -71.5139 C.ar      11 UNK        -0.0933 
     15 C15       -75.5222   29.3891  -69.0973 C.3       11 UNK         0.0166 
     16 S16       -73.7070   29.4435  -68.9516 S.3       11 UNK        -0.2615 
     17 C17       -73.3222   31.0895  -69.6514 C.3       11 UNK        -0.0865 
     18 CA        -72.0322   31.1405  -70.5222 C.3       10 UNK         0.0862 
     19 C         -70.7280   30.9510  -69.7021 C.2       10 UNK         0.5551 
     20 N         -70.4337   31.8609  -68.7832 N.am      10 UNK        -0.7319 
     21 O         -69.9772   29.9941  -69.8916 O.2       10 UNK        -0.5018 
     22 N         -72.0686   30.2268  -71.6689 N.am      10 UNK        -0.4509 
     23 C         -72.8607   30.3460  -72.7365 C.2       10 UNK         0.4899 
     24 O         -73.6828   31.2549  -72.8744 O.2       10 UNK        -0.4839 
     25 CA        -72.6919   29.2619  -73.8213 C.3       9 UNK         0.0222 
     26 CB        -72.9953   27.8582  -73.2672 C.3       9 UNK        -0.1966 
     27 N         -73.5437   29.4976  -74.9887 N.am      9 UNK        -0.4218 
     28 C         -73.3718   30.4618  -75.9003 C.2       9 UNK         0.5020 
     29 O         -72.3931   31.2114  -75.9316 O.2       9 UNK        -0.5274 
     30 CA        -74.4727   30.5791  -76.9738 C.3       8 UNK         0.0270 
     31 CB        -74.3444   31.8623  -77.8163 C.3       8 UNK        -0.1976 
     32 N         -74.4782   29.4210  -77.8693 N.am      8 UNK        -0.4313 
     33 C         -74.9407   28.2038  -77.5619 C.2       8 UNK         0.5041 
     34 O         -75.4581   27.9140  -76.4768 O.2       8 UNK        -0.5577 
     35 CA        -74.7590   27.1247  -78.6336 C.3       7 UNK         0.0284 
     36 CB        -73.2880   26.6679  -78.7031 C.3       7 UNK        -0.1958 
     37 N         -75.6148   25.9979  -78.2879 N.am      7 UNK        -0.4454 
     38 C         -75.9780   24.9942  -79.0929 C.2       7 UNK         0.5089 
     39 O         -75.6620   24.9264  -80.2823 O.2       7 UNK        -0.5125 
     40 CA        -76.8400   23.8824  -78.4572 C.3       6 UNK         0.0408 
     41 CB        -76.7283   22.5382  -79.2062 C.3       6 UNK        -0.1791 
     42 N         -76.5928   23.7011  -77.0199 N.am      6 UNK        -0.4762 
     43 C         -75.4354   23.3606  -76.4252 C.2       6 UNK         0.5007 
     44 O         -74.3928   23.1148  -77.0322 O.2       6 UNK        -0.5032 
     45 CA        -75.4454   23.2820  -74.8899 C.3       5 UNK         0.0783 
     46 C46       -75.2750   24.6915  -74.2726 C.3       11 UNK        -0.0857 
     47 S47       -75.1629   24.6156  -72.4537 S.3       11 UNK        -0.2512 
     48 C48       -76.7257   25.4022  -71.9553 C.3       11 UNK         0.0225 
     49 N         -76.6697   22.6125  -74.4420 N.am      5 UNK        -0.4615 
     50 C         -76.7242   21.3558  -73.9810 C.2       4 UNK         0.5053 
     51 O         -75.7357   20.6461  -73.7925 O.2       4 UNK        -0.5105 
     52 CA        -78.1237   20.7782  -73.6947 C.3       4 UNK         0.0263 
     53 CB        -78.5191   21.0367  -72.2317 C.3       4 UNK        -0.1981 
     54 N         -79.1579   21.3233  -74.5772 N.am      4 UNK        -0.4224 
     55 C         -79.1932   21.1678  -75.9089 C.2       3 UNK         0.4895 
     56 O         -78.4414   20.4148  -76.5280 O.2       3 UNK        -0.5091 
     57 CA        -80.2158   22.0120  -76.6939 C.3       3 UNK         0.0250 
     58 CB        -81.3580   21.1241  -77.2143 C.3       3 UNK        -0.1996 
     59 N         -80.7897   23.1458  -75.9554 N.am      3 UNK        -0.4254 
     60 C         -80.1107   24.1954  -75.4726 C.2       2 UNK         0.5004 
     61 O         -78.8807   24.3062  -75.5147 O.2       2 UNK        -0.5226 
     62 CA        -80.9402   25.2729  -74.7720 C.3       2 UNK         0.0269 
     63 CB        -81.1117   24.9409  -73.2794 C.3       2 UNK        -0.1926 
     64 N         -80.2523   26.5520  -74.9086 N.am      2 UNK        -0.4687 
     65 C         -80.8551   27.7332  -75.0782 C.2       1 UNK         0.5165 
     66 O         -82.0802   27.8807  -75.1048 O.2       1 UNK        -0.5079 
     67 H67       -81.9974   30.4963  -78.8474 H         1 UNK         0.0900 
     68 H68       -80.4169   31.2664  -79.0132 H         1 UNK         0.0900 
     69 H69       -81.4782   31.7081  -77.6743 H         1 UNK         0.0900 
     70 H70       -80.8499   30.7811  -75.7334 H         1 UNK         0.2959 
     71 H71       -78.9692   28.6214  -75.5725 H         1 UNK         0.1079 
     72 H72       -80.6615   29.9667  -73.3947 H         1 UNK         0.0837 
     73 H73       -79.3932   28.8282  -73.0654 H         1 UNK         0.0837 
     74 H74       -76.9005   29.5223  -74.8559 H         1 UNK         0.0685 
     75 H75       -76.1282   30.8133  -73.9771 H         1 UNK         0.0685 
     76 H76       -77.1354   27.3554  -73.8336 H         1 UNK         0.1434 
     77 H77       -75.9204   26.7843  -69.7604 H         1 UNK         0.1329 
     78 H78       -76.1265   30.7392  -71.4065 H         1 UNK         0.1335 
     79 H79       -75.9143   28.7672  -68.2911 H         1 UNK         0.0680 
     80 H80       -75.9422   30.3834  -68.9378 H         1 UNK         0.0680 
     81 H81       -73.2568   31.8023  -68.8280 H         1 UNK         0.1032 
     82 H82       -74.1670   31.4306  -70.2490 H         1 UNK         0.1032 
     83 H83       -71.9588   32.1461  -70.9413 H         1 UNK         0.0461 
     84 H84       -71.0310   32.6570  -68.6234 H         1 UNK         0.3453 
     85 H85       -69.5900   31.7531  -68.2419 H         1 UNK         0.3453 
     86 H86       -71.3961   29.4731  -71.6135 H         1 UNK         0.2984 
     87 H87       -71.6519   29.2834  -74.1531 H         1 UNK         0.0554 
     88 H88       -72.8996   27.0958  -74.0401 H         1 UNK         0.0847 
     89 H89       -74.0034   27.7962  -72.8598 H         1 UNK         0.0847 
     90 H90       -72.3089   27.5856  -72.4652 H         1 UNK         0.0847 
     91 H91       -74.3529   28.8945  -75.0997 H         1 UNK         0.3141 
     92 H92       -75.4328   30.6242  -76.4568 H         1 UNK         0.0743 
     93 H93       -75.1729   31.9606  -78.5182 H         1 UNK         0.0784 
     94 H94       -74.3551   32.7482  -77.1798 H         1 UNK         0.0784 
     95 H95       -73.4155   31.8824  -78.3877 H         1 UNK         0.0784 
     96 H96       -74.0368   29.5544  -78.7681 H         1 UNK         0.3213 
     97 H97       -75.0735   27.5300  -79.5977 H         1 UNK         0.0855 
     98 H98       -72.9551   26.2469  -77.7532 H         1 UNK         0.0814 
     99 H99       -72.6238   27.4987  -78.9437 H         1 UNK         0.0814 
    100 H100      -73.1407   25.9091  -79.4717 H         1 UNK         0.0814 
    101 H101      -75.9530   26.0248  -77.3335 H         1 UNK         0.3105 
    102 H102      -77.8740   24.2198  -78.5412 H         1 UNK         0.0547 
    103 H103      -77.0561   22.6379  -80.2415 H         1 UNK         0.0837 
    104 H104      -75.7023   22.1699  -79.2252 H         1 UNK         0.0837 
    105 H105      -77.3503   21.7721  -78.7438 H         1 UNK         0.0837 
    106 H106      -77.3935   23.9115  -76.4257 H         1 UNK         0.3020 
    107 H107      -74.5727   22.6907  -74.6024 H         1 UNK         0.1245 
    108 H108      -76.0908   25.3505  -74.5731 H         1 UNK         0.0781 
    109 H109      -74.3600   25.1597  -74.6402 H         1 UNK         0.0781 
    110 H110      -77.0424   24.9744  -71.0029 H         1 UNK         0.0836 
    111 H111      -77.5171   25.1634  -72.6677 H         1 UNK         0.0836 
    112 H112      -77.5360   23.1154  -74.5949 H         1 UNK         0.3022 
    113 H113      -78.0777   19.6991  -73.8567 H         1 UNK         0.0747 
    114 H114      -79.4763   20.5741  -71.9905 H         1 UNK         0.0793 
    115 H115      -77.7779   20.6187  -71.5489 H         1 UNK         0.0793 
    116 H116      -78.5952   22.1032  -72.0153 H         1 UNK         0.0793 
    117 H117      -79.8345   21.9422  -74.1566 H         1 UNK         0.3047 
    118 H118      -79.6850   22.4228  -77.5553 H         1 UNK         0.0822 
    119 H119      -82.0332   21.6831  -77.8626 H         1 UNK         0.0807 
    120 H120      -81.9458   20.7027  -76.3978 H         1 UNK         0.0807 
    121 H121      -80.9699   20.2895  -77.8004 H         1 UNK         0.0807 
    122 H122      -81.7939   23.1327  -75.8442 H         1 UNK         0.2946 
    123 H123      -81.9203   25.3229  -75.2530 H         1 UNK         0.1144 
    124 H124      -81.7023   25.7034  -72.7711 H         1 UNK         0.0793 
    125 H125      -80.1508   24.8690  -72.7681 H         1 UNK         0.0793 
    126 H126      -81.6284   23.9900  -73.1431 H         1 UNK         0.0793 
    127 H127      -79.2452   26.4779  -74.9648 H         1 UNK         0.2896 
@<TRIPOS>BOND
     1    1    2 1    
     2    1   67 1    
     3    1   68 1    
     4    1   69 1    
     5    2    3 2    
     6    2    4 am   BACKBONE|DICT|INTERRES
     7    4    5 1    
     8    4   70 1    
     9    5    6 1    
    10    5   65 1    
    11    5   71 1    
    12    6    7 1    
    13    6   72 1    
    14    6   73 1    
    15    7    8 1    
    16    8    9 1    
    17    8   74 1    
    18    8   75 1    
    19    9   10 ar   
    20    9   14 ar   
    21   10   11 ar   
    22   10   76 1    
    23   11   12 ar   
    24   11   48 1    
    25   12   13 ar   
    26   12   77 1    
    27   13   14 ar   
    28   13   15 1    
    29   14   78 1    
    30   15   16 1    
    31   15   79 1    
    32   15   80 1    
    33   16   17 1    
    34   17   18 1    
    35   17   81 1    
    36   17   82 1    
    37   18   19 1    
    38   18   22 1    
    39   18   83 1    
    40   19   20 am   BACKBONE|DICT|INTERRES
    41   19   21 2    
    42   20   84 1    
    43   20   85 1    
    44   22   23 am   BACKBONE|DICT|INTERRES
    45   22   86 1    
    46   23   24 2    
    47   23   25 1    
    48   25   26 1    
    49   25   27 1    
    50   25   87 1    
    51   26   88 1    
    52   26   89 1    
    53   26   90 1    
    54   27   28 am   BACKBONE|DICT|INTERRES
    55   27   91 1    
    56   28   29 2    
    57   28   30 1    
    58   30   31 1    
    59   30   32 1    
    60   30   92 1    
    61   31   93 1    
    62   31   94 1    
    63   31   95 1    
    64   32   33 am   BACKBONE|DICT|INTERRES
    65   32   96 1    
    66   33   34 2    
    67   33   35 1    
    68   35   36 1    
    69   35   37 1    
    70   35   97 1    
    71   36   98 1    
    72   36   99 1    
    73   36  100 1    
    74   37   38 am   BACKBONE|DICT|INTERRES
    75   37  101 1    
    76   38   39 2    
    77   38   40 1    
    78   40   41 1    
    79   40   42 1    
    80   40  102 1    
    81   41  103 1    
    82   41  104 1    
    83   41  105 1    
    84   42   43 am   BACKBONE|DICT|INTERRES
    85   42  106 1    
    86   43   44 2    
    87   43   45 1    
    88   45   46 1    
    89   45   49 1    
    90   45  107 1    
    91   46   47 1    
    92   46  108 1    
    93   46  109 1    
    94   47   48 1    
    95   48  110 1    
    96   48  111 1    
    97   49   50 am   BACKBONE|DICT|INTERRES
    98   49  112 1    
    99   50   51 2    
   100   50   52 1    
   101   52   53 1    
   102   52   54 1    
   103   52  113 1    
   104   53  114 1    
   105   53  115 1    
   106   53  116 1    
   107   54   55 am   BACKBONE|DICT|INTERRES
   108   54  117 1    
   109   55   56 2    
   110   55   57 1    
   111   57   58 1    
   112   57   59 1    
   113   57  118 1    
   114   58  119 1    
   115   58  120 1    
   116   58  121 1    
   117   59   60 am   BACKBONE|DICT|INTERRES
   118   59  122 1    
   119   60   61 2    
   120   60   62 1    
   121   62   63 1    
   122   62   64 1    
   123   62  123 1    
   124   63  124 1    
   125   63  125 1    
   126   63  126 1    
   127   64   65 am   BACKBONE|DICT|INTERRES
   128   64  127 1    
   129   65   66 2    
@<TRIPOS>SUBSTRUCTURE
     1 UNK         1 GROUP             0       ****    0 ROOT    
