@<TRIPOS>MOLECULE
3R135
127   129    1
SMALL
USER_CHARGES


@<TRIPOS>ATOM
      1 CA        -82.8420   23.8714  -70.3659 C.3       0 UNK        -0.1998 
      2 C         -82.5342   25.0213  -71.3125 C.2       0 UNK         0.4909 
      3 O         -83.4497   25.5809  -71.9175 O.2       0 UNK        -0.5240 
      4 N         -81.2509   25.3741  -71.4579 N.am      1 UNK        -0.4739 
      5 CA        -80.7455   26.4612  -72.3081 C.3       1 UNK         0.0864 
      6 C6        -79.3818   26.9881  -71.7919 C.3       11 UNK        -0.0881 
      7 S7        -79.5105   27.7708  -70.1475 S.3       11 UNK        -0.2682 
      8 C8        -79.9495   29.4892  -70.5730 C.3       11 UNK         0.0289 
      9 C9        -78.8360   30.1976  -71.3310 C.ar      11 UNK        -0.0687 
     10 C10       -78.9122   30.3457  -72.7196 C.ar      11 UNK        -0.0823 
     11 C11       -77.8762   30.9633  -73.4248 C.ar      11 UNK        -0.0830 
     12 C12       -76.7675   31.4545  -72.7293 C.ar      11 UNK        -0.1021 
     13 C13       -76.6868   31.3262  -71.3393 C.ar      11 UNK        -0.0753 
     14 C14       -77.7267   30.7006  -70.6447 C.ar      11 UNK        -0.0933 
     15 C15       -75.4778   31.8660  -70.5916 C.3       11 UNK         0.0166 
     16 S16       -74.4484   30.5144  -69.9340 S.3       11 UNK        -0.2615 
     17 C17       -72.7619   31.2042  -70.1063 C.3       11 UNK        -0.0865 
     18 CA        -71.8697   30.4327  -71.1180 C.3       10 UNK         0.0862 
     19 C         -71.3086   29.1144  -70.5102 C.2       10 UNK         0.5551 
     20 N         -70.2598   29.2072  -69.7033 N.am      10 UNK        -0.7319 
     21 O         -71.8266   28.0218  -70.7324 O.2       10 UNK        -0.5018 
     22 N         -72.5514   30.2396  -72.4071 N.am      10 UNK        -0.4509 
     23 C         -71.9537   29.8494  -73.5372 C.2       10 UNK         0.4899 
     24 O         -70.7328   29.7263  -73.6650 O.2       10 UNK        -0.4839 
     25 CA        -72.8760   29.6011  -74.7424 C.3       9 UNK         0.0222 
     26 CB        -73.0657   30.8936  -75.5526 C.3       9 UNK        -0.1966 
     27 N         -72.3221   28.5636  -75.6144 N.am      9 UNK        -0.4218 
     28 C         -72.3698   27.2535  -75.3461 C.2       9 UNK         0.5020 
     29 O         -72.9716   26.7725  -74.3850 O.2       9 UNK        -0.5274 
     30 CA        -71.5875   26.3281  -76.2849 C.3       8 UNK         0.0270 
     31 CB        -70.4328   25.6364  -75.5320 C.3       8 UNK        -0.1976 
     32 N         -72.4929   25.3402  -76.8710 N.am      8 UNK        -0.4313 
     33 C         -72.2255   24.6214  -77.9700 C.2       8 UNK         0.5041 
     34 O         -71.1569   24.6776  -78.5814 O.2       8 UNK        -0.5577 
     35 CA        -73.3398   23.7055  -78.5048 C.3       7 UNK         0.0284 
     36 CB        -73.5340   22.4685  -77.6118 C.3       7 UNK        -0.1958 
     37 N         -74.6058   24.4222  -78.6591 N.am      7 UNK        -0.4454 
     38 C         -74.8439   25.3455  -79.6024 C.2       7 UNK         0.5089 
     39 O         -74.0593   25.6166  -80.5120 O.2       7 UNK        -0.5125 
     40 CA        -76.1734   26.1165  -79.5076 C.3       6 UNK         0.0408 
     41 CB        -77.2942   25.3783  -80.2563 C.3       6 UNK        -0.1791 
     42 N         -76.5771   26.3746  -78.1224 N.am      6 UNK        -0.4762 
     43 C         -75.9229   27.2038  -77.2932 C.2       6 UNK         0.5007 
     44 O         -74.9484   27.8731  -77.6377 O.2       6 UNK        -0.5032 
     45 CA        -76.4127   27.2669  -75.8277 C.3       5 UNK         0.0783 
     46 C46       -77.4510   28.3970  -75.6100 C.3       11 UNK        -0.0857 
     47 S47       -76.7306   30.0657  -75.7858 S.3       11 UNK        -0.2512 
     48 C48       -77.9551   31.1097  -74.9370 C.3       11 UNK         0.0225 
     49 N         -76.9188   25.9716  -75.3521 N.am      5 UNK        -0.4615 
     50 C         -76.1683   24.8658  -75.2325 C.2       4 UNK         0.5053 
     51 O         -74.9725   24.8180  -75.5132 O.2       4 UNK        -0.5105 
     52 CA        -76.8808   23.5753  -74.7994 C.3       4 UNK         0.0263 
     53 CB        -77.2616   23.6164  -73.3115 C.3       4 UNK        -0.1981 
     54 N         -78.0660   23.2905  -75.6087 N.am      4 UNK        -0.4224 
     55 C         -78.0716   23.0715  -76.9299 C.2       3 UNK         0.4895 
     56 O         -77.0512   23.0556  -77.6171 O.2       3 UNK        -0.5091 
     57 CA        -79.4367   22.8787  -77.6196 C.3       3 UNK         0.0250 
     58 CB        -79.8891   21.4065  -77.5618 C.3       3 UNK        -0.1996 
     59 N         -80.4843   23.8004  -77.1490 N.am      3 UNK        -0.4254 
     60 C         -81.0645   23.8525  -75.9419 C.2       2 UNK         0.5004 
     61 O         -80.8586   23.0374  -75.0389 O.2       2 UNK        -0.5226 
     62 CA        -81.9961   25.0485  -75.6840 C.3       2 UNK         0.0269 
     63 CB        -83.4637   24.6432  -75.8923 C.3       2 UNK        -0.1926 
     64 N         -81.8336   25.5830  -74.3292 N.am      2 UNK        -0.4687 
     65 C         -80.6930   26.0451  -73.7974 C.2       1 UNK         0.5165 
     66 O         -79.6384   26.1341  -74.4324 O.2       1 UNK        -0.5079 
     67 H67       -81.9408   23.4774  -69.8965 H         1 UNK         0.0900 
     68 H68       -83.3255   23.0592  -70.9078 H         1 UNK         0.0900 
     69 H69       -83.5164   24.2052  -69.5778 H         1 UNK         0.0900 
     70 H70       -80.5436   24.8683  -70.9441 H         1 UNK         0.2959 
     71 H71       -81.4553   27.2901  -72.2613 H         1 UNK         0.1079 
     72 H72       -78.9383   27.6958  -72.4901 H         1 UNK         0.0837 
     73 H73       -78.6630   26.1713  -71.7180 H         1 UNK         0.0837 
     74 H74       -80.8751   29.4952  -71.1505 H         1 UNK         0.0685 
     75 H75       -80.1640   30.0343  -69.6526 H         1 UNK         0.0685 
     76 H76       -79.7714   29.9632  -73.2536 H         1 UNK         0.1434 
     77 H77       -75.9667   31.9332  -73.2764 H         1 UNK         0.1329 
     78 H78       -77.6631   30.5888  -69.5707 H         1 UNK         0.1335 
     79 H79       -75.8063   32.5006  -69.7674 H         1 UNK         0.0680 
     80 H80       -74.8903   32.5028  -71.2544 H         1 UNK         0.0680 
     81 H81       -72.2973   31.2288  -69.1186 H         1 UNK         0.1032 
     82 H82       -72.8202   32.2502  -70.4090 H         1 UNK         0.1032 
     83 H83       -71.0048   31.0672  -71.3237 H         1 UNK         0.0461 
     84 H84       -69.8868   28.3678  -69.2878 H         1 UNK         0.3453 
     85 H85       -69.8265   30.0964  -69.5083 H         1 UNK         0.3453 
     86 H86       -73.5595   30.2813  -72.3704 H         1 UNK         0.2984 
     87 H87       -73.8537   29.2731  -74.3820 H         1 UNK         0.0554 
     88 H88       -73.7129   30.7283  -76.4145 H         1 UNK         0.0847 
     89 H89       -72.1159   31.2887  -75.9155 H         1 UNK         0.0847 
     90 H90       -73.5320   31.6700  -74.9447 H         1 UNK         0.0847 
     91 H91       -71.7789   28.8819  -76.4036 H         1 UNK         0.3141 
     92 H92       -71.1652   26.9291  -77.0933 H         1 UNK         0.0743 
     93 H93       -70.8060   24.9686  -74.7545 H         1 UNK         0.0784 
     94 H94       -69.8068   25.0503  -76.2047 H         1 UNK         0.0784 
     95 H95       -69.7872   26.3714  -75.0492 H         1 UNK         0.0784 
     96 H96       -73.3933   25.2306  -76.4007 H         1 UNK         0.3213 
     97 H97       -73.0330   23.3532  -79.4922 H         1 UNK         0.0855 
     98 H98       -73.8409   22.7341  -76.6006 H         1 UNK         0.0814 
     99 H99       -72.6068   21.9000  -77.5304 H         1 UNK         0.0814 
    100 H100      -74.2905   21.7997  -78.0229 H         1 UNK         0.0814 
    101 H101      -75.3332   24.2207  -77.9815 H         1 UNK         0.3105 
    102 H102      -76.0295   27.0830  -79.9956 H         1 UNK         0.0547 
    103 H103      -77.0395   25.2603  -81.3103 H         1 UNK         0.0837 
    104 H104      -77.4650   24.3801  -79.8553 H         1 UNK         0.0837 
    105 H105      -78.2345   25.9276  -80.2115 H         1 UNK         0.0837 
    106 H106      -77.3475   25.8356  -77.7557 H         1 UNK         0.3020 
    107 H107      -75.5364   27.4969  -75.2170 H         1 UNK         0.1245 
    108 H108      -77.8630   28.3180  -74.6036 H         1 UNK         0.0781 
    109 H109      -78.2964   28.2933  -76.2927 H         1 UNK         0.0781 
    110 H110      -78.9537   30.8719  -75.3070 H         1 UNK         0.0836 
    111 H111      -77.7719   32.1518  -75.2026 H         1 UNK         0.0836 
    112 H112      -77.9018   25.9358  -75.0887 H         1 UNK         0.3022 
    113 H113      -76.1794   22.7508  -74.9447 H         1 UNK         0.0747 
    114 H114      -77.6418   22.6517  -72.9752 H         1 UNK         0.0793 
    115 H115      -76.3969   23.8584  -72.6920 H         1 UNK         0.0793 
    116 H116      -78.0286   24.3632  -73.1115 H         1 UNK         0.0793 
    117 H117      -78.9645   23.2719  -75.1334 H         1 UNK         0.3047 
    118 H118      -79.2867   23.1250  -78.6719 H         1 UNK         0.0822 
    119 H119      -80.8302   21.2598  -78.0917 H         1 UNK         0.0807 
    120 H120      -80.0219   21.0553  -76.5382 H         1 UNK         0.0807 
    121 H121      -79.1487   20.7566  -78.0300 H         1 UNK         0.0807 
    122 H122      -80.7271   24.5257  -77.8102 H         1 UNK         0.2946 
    123 H123      -81.7468   25.8494  -76.3835 H         1 UNK         0.1144 
    124 H124      -84.1337   25.4925  -75.7567 H         1 UNK         0.0793 
    125 H125      -83.7674   23.8617  -75.1943 H         1 UNK         0.0793 
    126 H126      -83.6259   24.2611  -76.9012 H         1 UNK         0.0793 
    127 H127      -82.6344   25.5166  -73.7083 H         1 UNK         0.2896 
@<TRIPOS>BOND
     1    1    2 1    
     2    1   67 1    
     3    1   68 1    
     4    1   69 1    
     5    2    3 2    
     6    2    4 am   BACKBONE|DICT|INTERRES
     7    4    5 1    
     8    4   70 1    
     9    5    6 1    
    10    5   65 1    
    11    5   71 1    
    12    6    7 1    
    13    6   72 1    
    14    6   73 1    
    15    7    8 1    
    16    8    9 1    
    17    8   74 1    
    18    8   75 1    
    19    9   10 ar   
    20    9   14 ar   
    21   10   11 ar   
    22   10   76 1    
    23   11   12 ar   
    24   11   48 1    
    25   12   13 ar   
    26   12   77 1    
    27   13   14 ar   
    28   13   15 1    
    29   14   78 1    
    30   15   16 1    
    31   15   79 1    
    32   15   80 1    
    33   16   17 1    
    34   17   18 1    
    35   17   81 1    
    36   17   82 1    
    37   18   19 1    
    38   18   22 1    
    39   18   83 1    
    40   19   20 am   BACKBONE|DICT|INTERRES
    41   19   21 2    
    42   20   84 1    
    43   20   85 1    
    44   22   23 am   BACKBONE|DICT|INTERRES
    45   22   86 1    
    46   23   24 2    
    47   23   25 1    
    48   25   26 1    
    49   25   27 1    
    50   25   87 1    
    51   26   88 1    
    52   26   89 1    
    53   26   90 1    
    54   27   28 am   BACKBONE|DICT|INTERRES
    55   27   91 1    
    56   28   29 2    
    57   28   30 1    
    58   30   31 1    
    59   30   32 1    
    60   30   92 1    
    61   31   93 1    
    62   31   94 1    
    63   31   95 1    
    64   32   33 am   BACKBONE|DICT|INTERRES
    65   32   96 1    
    66   33   34 2    
    67   33   35 1    
    68   35   36 1    
    69   35   37 1    
    70   35   97 1    
    71   36   98 1    
    72   36   99 1    
    73   36  100 1    
    74   37   38 am   BACKBONE|DICT|INTERRES
    75   37  101 1    
    76   38   39 2    
    77   38   40 1    
    78   40   41 1    
    79   40   42 1    
    80   40  102 1    
    81   41  103 1    
    82   41  104 1    
    83   41  105 1    
    84   42   43 am   BACKBONE|DICT|INTERRES
    85   42  106 1    
    86   43   44 2    
    87   43   45 1    
    88   45   46 1    
    89   45   49 1    
    90   45  107 1    
    91   46   47 1    
    92   46  108 1    
    93   46  109 1    
    94   47   48 1    
    95   48  110 1    
    96   48  111 1    
    97   49   50 am   BACKBONE|DICT|INTERRES
    98   49  112 1    
    99   50   51 2    
   100   50   52 1    
   101   52   53 1    
   102   52   54 1    
   103   52  113 1    
   104   53  114 1    
   105   53  115 1    
   106   53  116 1    
   107   54   55 am   BACKBONE|DICT|INTERRES
   108   54  117 1    
   109   55   56 2    
   110   55   57 1    
   111   57   58 1    
   112   57   59 1    
   113   57  118 1    
   114   58  119 1    
   115   58  120 1    
   116   58  121 1    
   117   59   60 am   BACKBONE|DICT|INTERRES
   118   59  122 1    
   119   60   61 2    
   120   60   62 1    
   121   62   63 1    
   122   62   64 1    
   123   62  123 1    
   124   63  124 1    
   125   63  125 1    
   126   63  126 1    
   127   64   65 am   BACKBONE|DICT|INTERRES
   128   64  127 1    
   129   65   66 2    
@<TRIPOS>SUBSTRUCTURE
     1 UNK         1 GROUP             0       ****    0 ROOT    
