@<TRIPOS>MOLECULE
3R135
127   129    1
SMALL
USER_CHARGES


@<TRIPOS>ATOM
      1 CA        -79.9237   32.6829  -76.3376 C.3       0 UNK        -0.1998 
      2 C         -80.1186   31.2776  -75.7896 C.2       0 UNK         0.4909 
      3 O         -81.2524   30.8791  -75.5184 O.2       0 UNK        -0.5240 
      4 N         -79.0185   30.5312  -75.6299 N.am      1 UNK        -0.4739 
      5 CA        -78.9238   29.1538  -75.1330 C.3       1 UNK         0.0864 
      6 C6        -79.4954   28.9252  -73.7063 C.3       11 UNK        -0.0881 
      7 S7        -78.7520   30.0471  -72.4764 S.3       11 UNK        -0.2682 
      8 C8        -78.8619   29.0560  -70.9519 C.3       11 UNK         0.0289 
      9 C9        -77.7826   27.9842  -70.8576 C.ar      11 UNK        -0.0687 
     10 C10       -78.1269   26.6541  -70.5985 C.ar      11 UNK        -0.0823 
     11 C11       -77.1354   25.6813  -70.4338 C.ar      11 UNK        -0.0830 
     12 C12       -75.7900   26.0395  -70.5767 C.ar      11 UNK        -0.1021 
     13 C13       -75.4303   27.3688  -70.8336 C.ar      11 UNK        -0.0753 
     14 C14       -76.4331   28.3344  -70.9564 C.ar      11 UNK        -0.0933 
     15 C15       -73.9606   27.7707  -70.9061 C.3       11 UNK         0.0166 
     16 S16       -73.4485   28.3402  -72.5623 S.3       11 UNK        -0.2615 
     17 C17       -73.8210   30.1319  -72.5190 C.3       11 UNK        -0.0865 
     18 CA        -74.8485   30.5882  -73.5928 C.3       10 UNK         0.0862 
     19 C         -75.1049   32.1196  -73.4665 C.2       10 UNK         0.5551 
     20 N         -74.7056   32.9448  -74.4260 N.am      10 UNK        -0.7319 
     21 O         -75.6657   32.5652  -72.4690 O.2       10 UNK        -0.5018 
     22 N         -74.4536   30.1014  -74.9229 N.am      10 UNK        -0.4509 
     23 C         -75.1305   30.1967  -76.0734 C.2       10 UNK         0.4899 
     24 O         -76.1989   30.7962  -76.1937 O.2       10 UNK        -0.4839 
     25 CA        -74.5420   29.4576  -77.2926 C.3       9 UNK         0.0222 
     26 CB        -74.4419   30.3707  -78.5321 C.3       9 UNK        -0.1966 
     27 N         -73.2781   28.7512  -77.0167 N.am      9 UNK        -0.4218 
     28 C         -72.0615   29.2768  -76.7900 C.2       9 UNK         0.5020 
     29 O         -71.8201   30.4816  -76.8662 O.2       9 UNK        -0.5274 
     30 CA        -70.9322   28.3251  -76.3397 C.3       8 UNK         0.0270 
     31 CB        -70.1959   28.8854  -75.1083 C.3       8 UNK        -0.1976 
     32 N         -71.4123   26.9791  -76.0154 N.am      8 UNK        -0.4313 
     33 C         -71.4637   25.9484  -76.8689 C.2       8 UNK         0.5041 
     34 O         -71.0571   25.9989  -78.0300 O.2       8 UNK        -0.5577 
     35 CA        -72.1044   24.6463  -76.3489 C.3       7 UNK         0.0284 
     36 CB        -71.0241   23.6860  -75.8265 C.3       7 UNK        -0.1958 
     37 N         -73.1204   24.8421  -75.3063 N.am      7 UNK        -0.4454 
     38 C         -74.2448   25.5570  -75.4419 C.2       7 UNK         0.5089 
     39 O         -74.5375   26.1752  -76.4660 O.2       7 UNK        -0.5125 
     40 CA        -75.1788   25.5825  -74.2234 C.3       6 UNK         0.0408 
     41 CB        -76.3281   26.5892  -74.3720 C.3       6 UNK        -0.1791 
     42 N         -75.7364   24.2608  -73.9615 N.am      6 UNK        -0.4762 
     43 C         -75.1309   23.3111  -73.2362 C.2       6 UNK         0.5007 
     44 O         -73.9892   23.4276  -72.7864 O.2       6 UNK        -0.5032 
     45 CA        -75.9248   22.0198  -72.9556 C.3       5 UNK         0.0783 
     46 C46       -76.5737   22.0609  -71.5497 C.3       11 UNK        -0.0857 
     47 S47       -77.9925   23.2135  -71.4171 S.3       11 UNK        -0.2512 
     48 C48       -77.5244   24.2703  -70.0103 C.3       11 UNK         0.0225 
     49 N         -76.9131   21.7169  -73.9935 N.am      5 UNK        -0.4615 
     50 C         -76.6298   21.3302  -75.2428 C.2       4 UNK         0.5053 
     51 O         -75.4882   21.1064  -75.6455 O.2       4 UNK        -0.5105 
     52 CA        -77.8173   21.1681  -76.2109 C.3       4 UNK         0.0263 
     53 CB        -78.1979   19.6846  -76.3454 C.3       4 UNK        -0.1981 
     54 N         -79.0135   21.9409  -75.8469 N.am      4 UNK        -0.4224 
     55 C         -79.0777   23.2786  -75.8056 C.2       3 UNK         0.4895 
     56 O         -78.1115   24.0189  -75.9994 O.2       3 UNK        -0.5091 
     57 CA        -80.4370   23.8904  -75.4544 C.3       3 UNK         0.0250 
     58 CB        -80.5775   24.0780  -73.9331 C.3       3 UNK        -0.1996 
     59 N         -80.5489   25.1817  -76.1242 N.am      3 UNK        -0.4254 
     60 C         -81.6858   25.7979  -76.4642 C.2       2 UNK         0.5004 
     61 O         -82.8044   25.3358  -76.2298 O.2       2 UNK        -0.5226 
     62 CA        -81.5444   27.1690  -77.1593 C.3       2 UNK         0.0269 
     63 CB        -82.9029   27.7879  -77.5386 C.3       2 UNK        -0.1926 
     64 N         -80.8110   28.1242  -76.3246 N.am      2 UNK        -0.4687 
     65 C         -79.4843   28.1465  -76.1522 C.2       1 UNK         0.5165 
     66 O         -78.7163   27.4039  -76.7627 O.2       1 UNK        -0.5079 
     67 H67       -80.4668   32.7990  -77.2751 H         1 UNK         0.0900 
     68 H68       -78.8725   32.9043  -76.5234 H         1 UNK         0.0900 
     69 H69       -80.3045   33.4174  -75.6285 H         1 UNK         0.0900 
     70 H70       -78.1165   30.9175  -75.8972 H         1 UNK         0.2959 
     71 H71       -77.8542   28.9525  -75.0749 H         1 UNK         0.1079 
     72 H72       -80.5771   29.0644  -73.6814 H         1 UNK         0.0837 
     73 H73       -79.3136   27.8946  -73.3949 H         1 UNK         0.0837 
     74 H74       -79.8596   28.6202  -70.8800 H         1 UNK         0.0685 
     75 H75       -78.7575   29.7250  -70.0967 H         1 UNK         0.0685 
     76 H76       -79.1669   26.3798  -70.4842 H         1 UNK         0.1434 
     77 H77       -75.0217   25.2887  -70.4513 H         1 UNK         0.1329 
     78 H78       -76.1694   29.3684  -71.1198 H         1 UNK         0.1335 
     79 H79       -73.7515   28.5402  -70.1619 H         1 UNK         0.0680 
     80 H80       -73.3303   26.9211  -70.6391 H         1 UNK         0.0680 
     81 H81       -74.1608   30.4123  -71.5209 H         1 UNK         0.1032 
     82 H82       -72.8770   30.6618  -72.6614 H         1 UNK         0.1032 
     83 H83       -75.8017   30.1062  -73.3723 H         1 UNK         0.0461 
     84 H84       -74.2564   32.5814  -75.2512 H         1 UNK         0.3453 
     85 H85       -74.8747   33.9336  -74.3329 H         1 UNK         0.3453 
     86 H86       -73.5847   29.5913  -74.9421 H         1 UNK         0.2984 
     87 H87       -75.2616   28.6727  -77.5302 H         1 UNK         0.0554 
     88 H88       -74.0340   29.8348  -79.3890 H         1 UNK         0.0847 
     89 H89       -73.8146   31.2433  -78.3497 H         1 UNK         0.0847 
     90 H90       -75.4263   30.7405  -78.8215 H         1 UNK         0.0847 
     91 H91       -73.3909   27.7466  -76.9100 H         1 UNK         0.3141 
     92 H92       -70.2163   28.2695  -77.1624 H         1 UNK         0.0743 
     93 H93       -69.7504   29.8577  -75.3232 H         1 UNK         0.0784 
     94 H94       -70.8671   29.0156  -74.2585 H         1 UNK         0.0784 
     95 H95       -69.3855   28.2259  -74.7972 H         1 UNK         0.0784 
     96 H96       -71.7676   26.8368  -75.0802 H         1 UNK         0.3213 
     97 H97       -72.6012   24.1725  -77.1982 H         1 UNK         0.0855 
     98 H98       -70.2669   23.4977  -76.5892 H         1 UNK         0.0814 
     99 H99       -71.4502   22.7209  -75.5511 H         1 UNK         0.0814 
    100 H100      -70.5127   24.0902  -74.9520 H         1 UNK         0.0814 
    101 H101      -72.9937   24.3420  -74.4327 H         1 UNK         0.3105 
    102 H102      -74.5867   25.8864  -73.3607 H         1 UNK         0.0547 
    103 H103      -76.9535   26.3500  -75.2304 H         1 UNK         0.0837 
    104 H104      -76.9616   26.6034  -73.4855 H         1 UNK         0.0837 
    105 H105      -75.9411   27.5982  -74.5106 H         1 UNK         0.0837 
    106 H106      -76.6406   24.0649  -74.3752 H         1 UNK         0.3020 
    107 H107      -75.1927   21.2086  -72.9579 H         1 UNK         0.1245 
    108 H108      -75.8200   22.2887  -70.7940 H         1 UNK         0.0781 
    109 H109      -76.9404   21.0653  -71.2956 H         1 UNK         0.0781 
    110 H110      -76.7236   23.8147  -69.4271 H         1 UNK         0.0836 
    111 H111      -78.3767   24.3242  -69.3313 H         1 UNK         0.0836 
    112 H112      -77.8773   21.8779  -73.7420 H         1 UNK         0.3022 
    113 H113      -77.4821   21.5239  -77.1875 H         1 UNK         0.0747 
    114 H114      -78.9687   19.5384  -77.1025 H         1 UNK         0.0793 
    115 H115      -77.3365   19.0856  -76.6449 H         1 UNK         0.0793 
    116 H116      -78.5673   19.2754  -75.4042 H         1 UNK         0.0793 
    117 H117      -79.8503   21.4082  -75.6549 H         1 UNK         0.3047 
    118 H118      -81.2252   23.2276  -75.8184 H         1 UNK         0.0822 
    119 H119      -80.4923   23.1253  -73.4092 H         1 UNK         0.0807 
    120 H120      -81.5468   24.5029  -73.6721 H         1 UNK         0.0807 
    121 H121      -79.8058   24.7402  -73.5372 H         1 UNK         0.0807 
    122 H122      -79.6611   25.6154  -76.3669 H         1 UNK         0.2946 
    123 H123      -80.9846   27.0035  -78.0829 H         1 UNK         0.1144 
    124 H124      -83.4684   27.1218  -78.1917 H         1 UNK         0.0793 
    125 H125      -82.7736   28.7297  -78.0725 H         1 UNK         0.0793 
    126 H126      -83.5171   27.9837  -76.6588 H         1 UNK         0.0793 
    127 H127      -81.3553   28.8288  -75.8382 H         1 UNK         0.2896 
@<TRIPOS>BOND
     1    1    2 1    
     2    1   67 1    
     3    1   68 1    
     4    1   69 1    
     5    2    3 2    
     6    2    4 am   BACKBONE|DICT|INTERRES
     7    4    5 1    
     8    4   70 1    
     9    5    6 1    
    10    5   65 1    
    11    5   71 1    
    12    6    7 1    
    13    6   72 1    
    14    6   73 1    
    15    7    8 1    
    16    8    9 1    
    17    8   74 1    
    18    8   75 1    
    19    9   10 ar   
    20    9   14 ar   
    21   10   11 ar   
    22   10   76 1    
    23   11   12 ar   
    24   11   48 1    
    25   12   13 ar   
    26   12   77 1    
    27   13   14 ar   
    28   13   15 1    
    29   14   78 1    
    30   15   16 1    
    31   15   79 1    
    32   15   80 1    
    33   16   17 1    
    34   17   18 1    
    35   17   81 1    
    36   17   82 1    
    37   18   19 1    
    38   18   22 1    
    39   18   83 1    
    40   19   20 am   BACKBONE|DICT|INTERRES
    41   19   21 2    
    42   20   84 1    
    43   20   85 1    
    44   22   23 am   BACKBONE|DICT|INTERRES
    45   22   86 1    
    46   23   24 2    
    47   23   25 1    
    48   25   26 1    
    49   25   27 1    
    50   25   87 1    
    51   26   88 1    
    52   26   89 1    
    53   26   90 1    
    54   27   28 am   BACKBONE|DICT|INTERRES
    55   27   91 1    
    56   28   29 2    
    57   28   30 1    
    58   30   31 1    
    59   30   32 1    
    60   30   92 1    
    61   31   93 1    
    62   31   94 1    
    63   31   95 1    
    64   32   33 am   BACKBONE|DICT|INTERRES
    65   32   96 1    
    66   33   34 2    
    67   33   35 1    
    68   35   36 1    
    69   35   37 1    
    70   35   97 1    
    71   36   98 1    
    72   36   99 1    
    73   36  100 1    
    74   37   38 am   BACKBONE|DICT|INTERRES
    75   37  101 1    
    76   38   39 2    
    77   38   40 1    
    78   40   41 1    
    79   40   42 1    
    80   40  102 1    
    81   41  103 1    
    82   41  104 1    
    83   41  105 1    
    84   42   43 am   BACKBONE|DICT|INTERRES
    85   42  106 1    
    86   43   44 2    
    87   43   45 1    
    88   45   46 1    
    89   45   49 1    
    90   45  107 1    
    91   46   47 1    
    92   46  108 1    
    93   46  109 1    
    94   47   48 1    
    95   48  110 1    
    96   48  111 1    
    97   49   50 am   BACKBONE|DICT|INTERRES
    98   49  112 1    
    99   50   51 2    
   100   50   52 1    
   101   52   53 1    
   102   52   54 1    
   103   52  113 1    
   104   53  114 1    
   105   53  115 1    
   106   53  116 1    
   107   54   55 am   BACKBONE|DICT|INTERRES
   108   54  117 1    
   109   55   56 2    
   110   55   57 1    
   111   57   58 1    
   112   57   59 1    
   113   57  118 1    
   114   58  119 1    
   115   58  120 1    
   116   58  121 1    
   117   59   60 am   BACKBONE|DICT|INTERRES
   118   59  122 1    
   119   60   61 2    
   120   60   62 1    
   121   62   63 1    
   122   62   64 1    
   123   62  123 1    
   124   63  124 1    
   125   63  125 1    
   126   63  126 1    
   127   64   65 am   BACKBONE|DICT|INTERRES
   128   64  127 1    
   129   65   66 2    
@<TRIPOS>SUBSTRUCTURE
     1 UNK         1 GROUP             0       ****    0 ROOT    
