@<TRIPOS>MOLECULE
3R135
127   129    1
SMALL
USER_CHARGES


@<TRIPOS>ATOM
      1 CA        -76.7910   27.8904  -75.5756 C.3       0 UNK        -0.1998 
      2 C         -77.9990   27.2671  -74.8979 C.2       0 UNK         0.4909 
      3 O         -78.0529   26.0427  -74.7623 O.2       0 UNK        -0.5240 
      4 N         -78.9727   28.0885  -74.4814 N.am      1 UNK        -0.4739 
      5 CA        -80.2160   27.6257  -73.8530 C.3       1 UNK         0.0864 
      6 C6        -81.0305   28.7845  -73.2222 C.3       11 UNK        -0.0881 
      7 S7        -81.8031   28.2608  -71.6557 S.3       11 UNK        -0.2682 
      8 C8        -80.7001   29.0260  -70.4217 C.3       11 UNK         0.0289 
      9 C9        -79.2396   28.6244  -70.5984 C.ar      11 UNK        -0.0687 
     10 C10       -78.8327   27.3073  -70.3661 C.ar      11 UNK        -0.0823 
     11 C11       -77.4912   26.9344  -70.5040 C.ar      11 UNK        -0.0830 
     12 C12       -76.5501   27.9117  -70.8539 C.ar      11 UNK        -0.1021 
     13 C13       -76.9429   29.2295  -71.1051 C.ar      11 UNK        -0.0753 
     14 C14       -78.2905   29.5777  -70.9779 C.ar      11 UNK        -0.0933 
     15 C15       -75.9148   30.2864  -71.4893 C.3       11 UNK         0.0166 
     16 S16       -75.1919   29.9750  -73.1323 S.3       11 UNK        -0.2615 
     17 C17       -73.6424   29.1054  -72.7065 C.3       11 UNK        -0.0865 
     18 CA        -72.3973   30.0010  -72.9314 C.3       10 UNK         0.0862 
     19 C         -71.1163   29.3146  -72.3858 C.2       10 UNK         0.5551 
     20 N         -70.7785   29.5465  -71.1251 N.am      10 UNK        -0.7319 
     21 O         -70.4559   28.5436  -73.0792 O.2       10 UNK        -0.5018 
     22 N         -72.2569   30.3764  -74.3442 N.am      10 UNK        -0.4509 
     23 C         -71.5021   31.3804  -74.8070 C.2       10 UNK         0.4899 
     24 O         -70.8946   32.1660  -74.0783 O.2       10 UNK        -0.4839 
     25 CA        -71.3895   31.5419  -76.3370 C.3       9 UNK         0.0222 
     26 CB        -69.9264   31.3964  -76.7896 C.3       9 UNK        -0.1966 
     27 N         -72.2051   30.5815  -77.0851 N.am      9 UNK        -0.4218 
     28 C         -73.5171   30.6760  -77.3259 C.2       9 UNK         0.5020 
     29 O         -74.2051   31.6400  -76.9906 O.2       9 UNK        -0.5274 
     30 CA        -74.1873   29.4801  -78.0307 C.3       8 UNK         0.0270 
     31 CB        -74.0072   29.5654  -79.5589 C.3       8 UNK        -0.1976 
     32 N         -73.7915   28.1573  -77.5142 N.am      8 UNK        -0.4313 
     33 C         -72.5956   27.5496  -77.5529 C.2       8 UNK         0.5041 
     34 O         -71.5870   28.0550  -78.0473 O.2       8 UNK        -0.5577 
     35 CA        -72.4825   26.1684  -76.8837 C.3       7 UNK         0.0284 
     36 CB        -71.7087   26.2819  -75.5595 C.3       7 UNK        -0.1958 
     37 N         -73.7718   25.5201  -76.6228 N.am      7 UNK        -0.4454 
     38 C         -74.5313   24.9144  -77.5454 C.2       7 UNK         0.5089 
     39 O         -74.2512   24.9011  -78.7443 O.2       7 UNK        -0.5125 
     40 CA        -75.8307   24.2284  -77.0702 C.3       6 UNK         0.0408 
     41 CB        -75.9362   22.7862  -77.6076 C.3       6 UNK        -0.1791 
     42 N         -76.0716   24.2629  -75.6183 N.am      6 UNK        -0.4762 
     43 C         -75.3791   23.6546  -74.6395 C.2       6 UNK         0.5007 
     44 O         -74.3492   23.0095  -74.8308 O.2       6 UNK        -0.5032 
     45 CA        -75.9272   23.7855  -73.2061 C.3       5 UNK         0.0783 
     46 C46       -75.4289   25.0868  -72.5277 C.3       11 UNK        -0.0857 
     47 S47       -75.4261   24.9564  -70.7073 S.3       11 UNK        -0.2512 
     48 C48       -77.1171   25.4744  -70.2380 C.3       11 UNK         0.0225 
     49 N         -77.3891   23.7248  -73.2449 N.am      5 UNK        -0.4615 
     50 C         -78.1294   22.7069  -72.7960 C.2       4 UNK         0.5053 
     51 O         -77.6772   21.7312  -72.1965 O.2       4 UNK        -0.5105 
     52 CA        -79.6377   22.7885  -73.0815 C.3       4 UNK         0.0263 
     53 CB        -80.3306   23.7194  -72.0726 C.3       4 UNK        -0.1981 
     54 N         -79.9380   23.2279  -74.4493 N.am      4 UNK        -0.4224 
     55 C         -79.6444   22.5181  -75.5533 C.2       3 UNK         0.4895 
     56 O         -79.0831   21.4224  -75.5180 O.2       3 UNK        -0.5091 
     57 CA        -80.0435   23.0905  -76.9267 C.3       3 UNK         0.0250 
     58 CB        -80.7872   22.0511  -77.7875 C.3       3 UNK        -0.1996 
     59 N         -80.8539   24.3018  -76.8160 N.am      3 UNK        -0.4254 
     60 C         -80.8216   25.3388  -77.6584 C.2       2 UNK         0.5004 
     61 O         -80.1354   25.3783  -78.6799 O.2       2 UNK        -0.5226 
     62 CA        -81.6744   26.5595  -77.2726 C.3       2 UNK         0.0269 
     63 CB        -83.1723   26.2155  -77.1311 C.3       2 UNK        -0.1926 
     64 N         -81.1458   27.2413  -76.0836 N.am      2 UNK        -0.4687 
     65 C         -81.0644   26.7810  -74.8245 C.2       1 UNK         0.5165 
     66 O         -81.5436   25.7103  -74.4463 O.2       1 UNK        -0.5079 
     67 H67       -75.8814   27.6038  -75.0493 H         1 UNK         0.0900 
     68 H68       -76.8486   28.9788  -75.5874 H         1 UNK         0.0900 
     69 H69       -76.7270   27.5403  -76.6050 H         1 UNK         0.0900 
     70 H70       -78.8710   29.0863  -74.5992 H         1 UNK         0.2959 
     71 H71       -79.8984   26.9515  -73.0552 H         1 UNK         0.1079 
     72 H72       -80.3911   29.6447  -73.0199 H         1 UNK         0.0837 
     73 H73       -81.8049   29.1580  -73.8955 H         1 UNK         0.0837 
     74 H74       -80.8127   30.1101  -70.4739 H         1 UNK         0.0685 
     75 H75       -81.0321   28.7341  -69.4245 H         1 UNK         0.0685 
     76 H76       -79.5695   26.5697  -70.0775 H         1 UNK         0.1434 
     77 H77       -75.5064   27.6539  -70.9397 H         1 UNK         0.1329 
     78 H78       -78.5999   30.5974  -71.1618 H         1 UNK         0.1335 
     79 H79       -75.1346   30.3396  -70.7289 H         1 UNK         0.0680 
     80 H80       -76.3780   31.2739  -71.5089 H         1 UNK         0.0680 
     81 H81       -73.5804   28.1958  -73.3049 H         1 UNK         0.1032 
     82 H82       -73.6826   28.7736  -71.6683 H         1 UNK         0.1032 
     83 H83       -72.5450   30.9224  -72.3634 H         1 UNK         0.0461 
     84 H84       -69.9586   29.0971  -70.7483 H         1 UNK         0.3453 
     85 H85       -71.3158   30.1729  -70.5461 H         1 UNK         0.3453 
     86 H86       -72.7182   29.7809  -75.0126 H         1 UNK         0.2984 
     87 H87       -71.7244   32.5517  -76.5828 H         1 UNK         0.0554 
     88 H88       -69.8248   31.5580  -77.8629 H         1 UNK         0.0847 
     89 H89       -69.5312   30.4057  -76.5604 H         1 UNK         0.0847 
     90 H90       -69.2858   32.1263  -76.2927 H         1 UNK         0.0847 
     91 H91       -71.7420   29.7354  -77.4186 H         1 UNK         0.3141 
     92 H92       -75.2562   29.5648  -77.8280 H         1 UNK         0.0743 
     93 H93       -72.9590   29.5010  -79.8525 H         1 UNK         0.0784 
     94 H94       -74.5461   28.7649  -80.0658 H         1 UNK         0.0784 
     95 H95       -74.3928   30.5105  -79.9436 H         1 UNK         0.0784 
     96 H96       -74.5299   27.6380  -77.0650 H         1 UNK         0.3213 
     97 H97       -71.9083   25.5308  -77.5598 H         1 UNK         0.0855 
     98 H98       -70.7259   26.7297  -75.7157 H         1 UNK         0.0814 
     99 H99       -71.5460   25.3024  -75.1091 H         1 UNK         0.0814 
    100 H100      -72.2326   26.9026  -74.8331 H         1 UNK         0.0814 
    101 H101      -74.0571   25.4343  -75.6592 H         1 UNK         0.3105 
    102 H102      -76.6479   24.8008  -77.5120 H         1 UNK         0.0547 
    103 H103      -75.9414   22.7742  -78.6982 H         1 UNK         0.0837 
    104 H104      -75.0970   22.1706  -77.2828 H         1 UNK         0.0837 
    105 H105      -76.8531   22.3004  -77.2753 H         1 UNK         0.0837 
    106 H106      -76.8740   24.8254  -75.3385 H         1 UNK         0.3020 
    107 H107      -75.5279   22.9312  -72.6538 H         1 UNK         0.1245 
    108 H108      -76.0156   25.9502  -72.8440 H         1 UNK         0.0781 
    109 H109      -74.3980   25.3053  -72.8138 H         1 UNK         0.0781 
    110 H110      -77.2354   25.2871  -69.1700 H         1 UNK         0.0836 
    111 H111      -77.8316   24.8218  -70.7373 H         1 UNK         0.0836 
    112 H112      -77.8506   24.4910  -73.7279 H         1 UNK         0.3022 
    113 H113      -80.0527   21.7860  -72.9564 H         1 UNK         0.0747 
    114 H114      -81.4103   23.7341  -72.2231 H         1 UNK         0.0793 
    115 H115      -80.1505   23.3893  -71.0487 H         1 UNK         0.0793 
    116 H116      -79.9698   24.7447  -72.1535 H         1 UNK         0.0793 
    117 H117      -80.3859   24.1339  -74.5351 H         1 UNK         0.3047 
    118 H118      -79.1051   23.3422  -77.4251 H         1 UNK         0.0822 
    119 H119      -81.0070   22.4427  -78.7809 H         1 UNK         0.0807 
    120 H120      -81.7303   21.7526  -77.3284 H         1 UNK         0.0807 
    121 H121      -80.1889   21.1495  -77.9248 H         1 UNK         0.0807 
    122 H122      -81.4296   24.3986  -75.9869 H         1 UNK         0.2946 
    123 H123      -81.5849   27.2716  -78.0952 H         1 UNK         0.1144 
    124 H124      -83.5529   25.7642  -78.0483 H         1 UNK         0.0793 
    125 H125      -83.7640   27.1114  -76.9433 H         1 UNK         0.0793 
    126 H126      -83.3700   25.5132  -76.3215 H         1 UNK         0.0793 
    127 H127      -80.6713   28.1131  -76.2743 H         1 UNK         0.2896 
@<TRIPOS>BOND
     1    1    2 1    
     2    1   67 1    
     3    1   68 1    
     4    1   69 1    
     5    2    3 2    
     6    2    4 am   BACKBONE|DICT|INTERRES
     7    4    5 1    
     8    4   70 1    
     9    5    6 1    
    10    5   65 1    
    11    5   71 1    
    12    6    7 1    
    13    6   72 1    
    14    6   73 1    
    15    7    8 1    
    16    8    9 1    
    17    8   74 1    
    18    8   75 1    
    19    9   10 ar   
    20    9   14 ar   
    21   10   11 ar   
    22   10   76 1    
    23   11   12 ar   
    24   11   48 1    
    25   12   13 ar   
    26   12   77 1    
    27   13   14 ar   
    28   13   15 1    
    29   14   78 1    
    30   15   16 1    
    31   15   79 1    
    32   15   80 1    
    33   16   17 1    
    34   17   18 1    
    35   17   81 1    
    36   17   82 1    
    37   18   19 1    
    38   18   22 1    
    39   18   83 1    
    40   19   20 am   BACKBONE|DICT|INTERRES
    41   19   21 2    
    42   20   84 1    
    43   20   85 1    
    44   22   23 am   BACKBONE|DICT|INTERRES
    45   22   86 1    
    46   23   24 2    
    47   23   25 1    
    48   25   26 1    
    49   25   27 1    
    50   25   87 1    
    51   26   88 1    
    52   26   89 1    
    53   26   90 1    
    54   27   28 am   BACKBONE|DICT|INTERRES
    55   27   91 1    
    56   28   29 2    
    57   28   30 1    
    58   30   31 1    
    59   30   32 1    
    60   30   92 1    
    61   31   93 1    
    62   31   94 1    
    63   31   95 1    
    64   32   33 am   BACKBONE|DICT|INTERRES
    65   32   96 1    
    66   33   34 2    
    67   33   35 1    
    68   35   36 1    
    69   35   37 1    
    70   35   97 1    
    71   36   98 1    
    72   36   99 1    
    73   36  100 1    
    74   37   38 am   BACKBONE|DICT|INTERRES
    75   37  101 1    
    76   38   39 2    
    77   38   40 1    
    78   40   41 1    
    79   40   42 1    
    80   40  102 1    
    81   41  103 1    
    82   41  104 1    
    83   41  105 1    
    84   42   43 am   BACKBONE|DICT|INTERRES
    85   42  106 1    
    86   43   44 2    
    87   43   45 1    
    88   45   46 1    
    89   45   49 1    
    90   45  107 1    
    91   46   47 1    
    92   46  108 1    
    93   46  109 1    
    94   47   48 1    
    95   48  110 1    
    96   48  111 1    
    97   49   50 am   BACKBONE|DICT|INTERRES
    98   49  112 1    
    99   50   51 2    
   100   50   52 1    
   101   52   53 1    
   102   52   54 1    
   103   52  113 1    
   104   53  114 1    
   105   53  115 1    
   106   53  116 1    
   107   54   55 am   BACKBONE|DICT|INTERRES
   108   54  117 1    
   109   55   56 2    
   110   55   57 1    
   111   57   58 1    
   112   57   59 1    
   113   57  118 1    
   114   58  119 1    
   115   58  120 1    
   116   58  121 1    
   117   59   60 am   BACKBONE|DICT|INTERRES
   118   59  122 1    
   119   60   61 2    
   120   60   62 1    
   121   62   63 1    
   122   62   64 1    
   123   62  123 1    
   124   63  124 1    
   125   63  125 1    
   126   63  126 1    
   127   64   65 am   BACKBONE|DICT|INTERRES
   128   64  127 1    
   129   65   66 2    
@<TRIPOS>SUBSTRUCTURE
     1 UNK         1 GROUP             0       ****    0 ROOT    
