@<TRIPOS>MOLECULE
3R135
127   129    1
SMALL
USER_CHARGES


@<TRIPOS>ATOM
      1 CA        -79.2564   23.7951  -72.7993 C.3       0 UNK        -0.1998 
      2 C         -80.4574   24.7085  -72.6285 C.2       0 UNK         0.4909 
      3 O         -81.5640   24.3426  -73.0254 O.2       0 UNK        -0.5240 
      4 N         -80.2547   25.8999  -72.0514 N.am      1 UNK        -0.4739 
      5 CA        -81.3103   26.8853  -71.7913 C.3       1 UNK         0.0864 
      6 C6        -80.8365   28.0697  -70.9127 C.3       11 UNK        -0.0881 
      7 S7        -79.9636   27.5287  -69.4023 S.3       11 UNK        -0.2682 
      8 C8        -78.3172   28.2746  -69.6341 C.3       11 UNK         0.0289 
      9 C9        -77.5762   27.7101  -70.8402 C.ar      11 UNK        -0.0687 
     10 C10       -76.9125   26.4838  -70.7507 C.ar      11 UNK        -0.0823 
     11 C11       -76.1809   25.9839  -71.8328 C.ar      11 UNK        -0.0830 
     12 C12       -76.1378   26.7272  -73.0195 C.ar      11 UNK        -0.1021 
     13 C13       -76.7949   27.9587  -73.1296 C.ar      11 UNK        -0.0753 
     14 C14       -77.5137   28.4375  -72.0320 C.ar      11 UNK        -0.0933 
     15 C15       -76.7402   28.8204  -74.3934 C.3       11 UNK         0.0166 
     16 S16       -75.4332   28.3704  -75.5880 S.3       11 UNK        -0.2615 
     17 C17       -75.4554   29.8174  -76.7052 C.3       11 UNK        -0.0865 
     18 CA        -74.3130   30.8336  -76.4270 C.3       10 UNK         0.0862 
     19 C         -74.6162   31.7359  -75.1922 C.2       10 UNK         0.5551 
     20 N         -73.8119   31.7306  -74.1349 N.am      10 UNK        -0.7319 
     21 O         -75.6048   32.4650  -75.2011 O.2       10 UNK        -0.5018 
     22 N         -73.0078   30.1616  -76.4019 N.am      10 UNK        -0.4509 
     23 C         -71.8137   30.7517  -76.5225 C.2       10 UNK         0.4899 
     24 O         -71.6596   31.9383  -76.8153 O.2       10 UNK        -0.4839 
     25 CA        -70.5934   29.8498  -76.2497 C.3       9 UNK         0.0222 
     26 CB        -69.3162   30.6490  -75.9142 C.3       9 UNK        -0.1966 
     27 N         -70.8621   28.8258  -75.2277 N.am      9 UNK        -0.4218 
     28 C         -71.1953   29.0265  -73.9403 C.2       9 UNK         0.5020 
     29 O         -71.3003   30.1472  -73.4396 O.2       9 UNK        -0.5274 
     30 CA        -71.5200   27.7953  -73.0652 C.3       8 UNK         0.0270 
     31 CB        -72.8842   27.9656  -72.3738 C.3       8 UNK        -0.1976 
     32 N         -71.5275   26.5315  -73.8059 N.am      8 UNK        -0.4313 
     33 C         -70.4426   25.8295  -74.1594 C.2       8 UNK         0.5041 
     34 O         -69.2966   26.1249  -73.8203 O.2       8 UNK        -0.5577 
     35 CA        -70.6680   24.6211  -75.0886 C.3       7 UNK         0.0284 
     36 CB        -70.7050   23.3162  -74.2775 C.3       7 UNK        -0.1958 
     37 N         -71.8828   24.7152  -75.9083 N.am      7 UNK        -0.4454 
     38 C         -72.1508   25.6661  -76.8134 C.2       7 UNK         0.5089 
     39 O         -71.3809   26.5929  -77.0643 O.2       7 UNK        -0.5125 
     40 CA        -73.5194   25.6270  -77.5191 C.3       6 UNK         0.0408 
     41 CB        -73.4158   24.9407  -78.8940 C.3       6 UNK        -0.1791 
     42 N         -74.6164   25.0696  -76.7116 N.am      6 UNK        -0.4762 
     43 C         -74.8121   23.8040  -76.3065 C.2       6 UNK         0.5007 
     44 O         -74.0367   22.8827  -76.5633 O.2       6 UNK        -0.5032 
     45 CA        -76.0458   23.5182  -75.4187 C.3       5 UNK         0.0783 
     46 C46       -75.6524   23.0428  -73.9917 C.3       11 UNK        -0.0857 
     47 S47       -74.4528   24.0895  -73.0863 S.3       11 UNK        -0.2512 
     48 C48       -75.4163   24.6708  -71.6450 C.3       11 UNK         0.0225 
     49 N         -77.0317   24.6107  -75.4010 N.am      5 UNK        -0.4615 
     50 C         -77.8432   24.8951  -76.4308 C.2       4 UNK         0.5053 
     51 O         -77.8071   24.2825  -77.4981 O.2       4 UNK        -0.5105 
     52 CA        -78.8298   26.0637  -76.2401 C.3       4 UNK         0.0263 
     53 CB        -78.6679   27.1279  -77.3438 C.3       4 UNK        -0.1981 
     54 N         -80.2280   25.6256  -76.1270 N.am      4 UNK        -0.4224 
     55 C         -80.9922   24.9805  -77.0263 C.2       3 UNK         0.4895 
     56 O         -80.6439   24.6911  -78.1705 O.2       3 UNK        -0.5091 
     57 CA        -82.4138   24.5935  -76.5806 C.3       3 UNK         0.0250 
     58 CB        -82.4480   23.1340  -76.0974 C.3       3 UNK        -0.1996 
     59 N         -82.9418   25.4725  -75.5331 N.am      3 UNK        -0.4254 
     60 C         -83.4727   26.6822  -75.7731 C.2       2 UNK         0.5004 
     61 O         -83.6207   27.1486  -76.9033 O.2       2 UNK        -0.5226 
     62 CA        -83.9139   27.5250  -74.5603 C.3       2 UNK         0.0269 
     63 CB        -85.4278   27.3854  -74.3311 C.3       2 UNK        -0.1926 
     64 N         -83.2070   27.1979  -73.3182 N.am      2 UNK        -0.4687 
     65 C         -81.8965   27.3927  -73.1214 C.2       1 UNK         0.5165 
     66 O         -81.1470   27.9057  -73.9552 O.2       1 UNK        -0.5079 
     67 H67       -79.1935   23.4439  -73.8286 H         1 UNK         0.0900 
     68 H68       -78.3284   24.3049  -72.5510 H         1 UNK         0.0900 
     69 H69       -79.3529   22.9261  -72.1493 H         1 UNK         0.0900 
     70 H70       -79.3290   26.1724  -71.7495 H         1 UNK         0.2959 
     71 H71       -82.0975   26.3648  -71.2409 H         1 UNK         0.1079 
     72 H72       -81.6958   28.6672  -70.6026 H         1 UNK         0.0837 
     73 H73       -80.2019   28.7488  -71.4821 H         1 UNK         0.0837 
     74 H74       -77.7257   28.1017  -68.7338 H         1 UNK         0.0685 
     75 H75       -78.4233   29.3572  -69.7203 H         1 UNK         0.0685 
     76 H76       -76.9457   25.9291  -69.8223 H         1 UNK         0.1434 
     77 H77       -75.5541   26.3681  -73.8501 H         1 UNK         0.1329 
     78 H78       -78.0115   29.3950  -72.1013 H         1 UNK         0.1335 
     79 H79       -76.5882   29.8584  -74.0956 H         1 UNK         0.0680 
     80 H80       -77.7086   28.7813  -74.8933 H         1 UNK         0.0680 
     81 H81       -76.4338   30.3013  -76.6772 H         1 UNK         0.1032 
     82 H82       -75.3542   29.4406  -77.7241 H         1 UNK         0.1032 
     83 H83       -74.2911   31.5191  -77.2764 H         1 UNK         0.0461 
     84 H84       -74.0296   32.3268  -73.3531 H         1 UNK         0.3453 
     85 H85       -72.9833   31.1486  -74.1039 H         1 UNK         0.3453 
     86 H86       -73.0356   29.1852  -76.1486 H         1 UNK         0.2984 
     87 H87       -70.4066   29.3072  -77.1774 H         1 UNK         0.0554 
     88 H88       -69.0390   31.3070  -76.7386 H         1 UNK         0.0847 
     89 H89       -68.4701   29.9866  -75.7319 H         1 UNK         0.0847 
     90 H90       -69.4488   31.2752  -75.0314 H         1 UNK         0.0847 
     91 H91       -70.8520   27.8727  -75.5772 H         1 UNK         0.3141 
     92 H92       -70.7520   27.7391  -72.2910 H         1 UNK         0.0743 
     93 H93       -72.8789   28.8231  -71.6998 H         1 UNK         0.0784 
     94 H94       -73.1466   27.0909  -71.7782 H         1 UNK         0.0784 
     95 H95       -73.6814   28.1325  -73.0976 H         1 UNK         0.0784 
     96 H96       -72.4268   26.1937  -74.1173 H         1 UNK         0.3213 
     97 H97       -69.8171   24.5765  -75.7716 H         1 UNK         0.0855 
     98 H98       -71.5454   23.2953  -73.5830 H         1 UNK         0.0814 
     99 H99       -69.7940   23.1967  -73.6893 H         1 UNK         0.0814 
    100 H100      -70.7856   22.4453  -74.9283 H         1 UNK         0.0814 
    101 H101      -72.5632   23.9673  -75.8169 H         1 UNK         0.3105 
    102 H102      -73.7971   26.6667  -77.6998 H         1 UNK         0.0547 
    103 H103      -73.0977   23.9012  -78.8118 H         1 UNK         0.0837 
    104 H104      -74.3706   24.9596  -79.4194 H         1 UNK         0.0837 
    105 H105      -72.6876   25.4500  -79.5266 H         1 UNK         0.0837 
    106 H106      -75.3005   25.7497  -76.4103 H         1 UNK         0.3020 
    107 H107      -76.5389   22.6665  -75.8946 H         1 UNK         0.1245 
    108 H108      -75.2000   22.0520  -74.0640 H         1 UNK         0.0781 
    109 H109      -76.5471   22.8926  -73.3885 H         1 UNK         0.0781 
    110 H110      -74.7113   24.8128  -70.8246 H         1 UNK         0.0836 
    111 H111      -76.1004   23.8867  -71.3182 H         1 UNK         0.0836 
    112 H112      -77.0817   25.1580  -74.5540 H         1 UNK         0.3022 
    113 H113      -78.5974   26.5456  -75.2894 H         1 UNK         0.0747 
    114 H114      -79.3027   27.9932  -77.1528 H         1 UNK         0.0793 
    115 H115      -77.6394   27.4842  -77.3972 H         1 UNK         0.0793 
    116 H116      -78.9214   26.7369  -78.3294 H         1 UNK         0.0793 
    117 H117      -80.6664   25.8429  -75.2427 H         1 UNK         0.3047 
    118 H118      -83.0634   24.6670  -77.4560 H         1 UNK         0.0822 
    119 H119      -83.4524   22.8385  -75.7938 H         1 UNK         0.0807 
    120 H120      -81.7786   22.9673  -75.2535 H         1 UNK         0.0807 
    121 H121      -82.1380   22.4556  -76.8933 H         1 UNK         0.0807 
    122 H122      -82.8323   25.1586  -74.5746 H         1 UNK         0.2946 
    123 H123      -83.6984   28.5685  -74.8026 H         1 UNK         0.1144 
    124 H124      -85.7720   28.0452  -73.5344 H         1 UNK         0.0793 
    125 H125      -85.7039   26.3639  -74.0662 H         1 UNK         0.0793 
    126 H126      -85.9849   27.6503  -75.2310 H         1 UNK         0.0793 
    127 H127      -83.7510   26.7494  -72.5944 H         1 UNK         0.2896 
@<TRIPOS>BOND
     1    1    2 1    
     2    1   67 1    
     3    1   68 1    
     4    1   69 1    
     5    2    3 2    
     6    2    4 am   BACKBONE|DICT|INTERRES
     7    4    5 1    
     8    4   70 1    
     9    5    6 1    
    10    5   65 1    
    11    5   71 1    
    12    6    7 1    
    13    6   72 1    
    14    6   73 1    
    15    7    8 1    
    16    8    9 1    
    17    8   74 1    
    18    8   75 1    
    19    9   10 ar   
    20    9   14 ar   
    21   10   11 ar   
    22   10   76 1    
    23   11   12 ar   
    24   11   48 1    
    25   12   13 ar   
    26   12   77 1    
    27   13   14 ar   
    28   13   15 1    
    29   14   78 1    
    30   15   16 1    
    31   15   79 1    
    32   15   80 1    
    33   16   17 1    
    34   17   18 1    
    35   17   81 1    
    36   17   82 1    
    37   18   19 1    
    38   18   22 1    
    39   18   83 1    
    40   19   20 am   BACKBONE|DICT|INTERRES
    41   19   21 2    
    42   20   84 1    
    43   20   85 1    
    44   22   23 am   BACKBONE|DICT|INTERRES
    45   22   86 1    
    46   23   24 2    
    47   23   25 1    
    48   25   26 1    
    49   25   27 1    
    50   25   87 1    
    51   26   88 1    
    52   26   89 1    
    53   26   90 1    
    54   27   28 am   BACKBONE|DICT|INTERRES
    55   27   91 1    
    56   28   29 2    
    57   28   30 1    
    58   30   31 1    
    59   30   32 1    
    60   30   92 1    
    61   31   93 1    
    62   31   94 1    
    63   31   95 1    
    64   32   33 am   BACKBONE|DICT|INTERRES
    65   32   96 1    
    66   33   34 2    
    67   33   35 1    
    68   35   36 1    
    69   35   37 1    
    70   35   97 1    
    71   36   98 1    
    72   36   99 1    
    73   36  100 1    
    74   37   38 am   BACKBONE|DICT|INTERRES
    75   37  101 1    
    76   38   39 2    
    77   38   40 1    
    78   40   41 1    
    79   40   42 1    
    80   40  102 1    
    81   41  103 1    
    82   41  104 1    
    83   41  105 1    
    84   42   43 am   BACKBONE|DICT|INTERRES
    85   42  106 1    
    86   43   44 2    
    87   43   45 1    
    88   45   46 1    
    89   45   49 1    
    90   45  107 1    
    91   46   47 1    
    92   46  108 1    
    93   46  109 1    
    94   47   48 1    
    95   48  110 1    
    96   48  111 1    
    97   49   50 am   BACKBONE|DICT|INTERRES
    98   49  112 1    
    99   50   51 2    
   100   50   52 1    
   101   52   53 1    
   102   52   54 1    
   103   52  113 1    
   104   53  114 1    
   105   53  115 1    
   106   53  116 1    
   107   54   55 am   BACKBONE|DICT|INTERRES
   108   54  117 1    
   109   55   56 2    
   110   55   57 1    
   111   57   58 1    
   112   57   59 1    
   113   57  118 1    
   114   58  119 1    
   115   58  120 1    
   116   58  121 1    
   117   59   60 am   BACKBONE|DICT|INTERRES
   118   59  122 1    
   119   60   61 2    
   120   60   62 1    
   121   62   63 1    
   122   62   64 1    
   123   62  123 1    
   124   63  124 1    
   125   63  125 1    
   126   63  126 1    
   127   64   65 am   BACKBONE|DICT|INTERRES
   128   64  127 1    
   129   65   66 2    
@<TRIPOS>SUBSTRUCTURE
     1 UNK         1 GROUP             0       ****    0 ROOT    
