@<TRIPOS>MOLECULE
3R135
127   129    1
SMALL
USER_CHARGES


@<TRIPOS>ATOM
      1 CA        -82.4119   26.5442  -71.6758 C.3       0 UNK        -0.1998 
      2 C         -82.4373   27.3142  -72.9872 C.2       0 UNK         0.4909 
      3 O         -83.5085   27.5266  -73.5554 O.2       0 UNK        -0.5240 
      4 N         -81.2595   27.7257  -73.4750 N.am      1 UNK        -0.4739 
      5 CA        -81.0834   28.4378  -74.7492 C.3       1 UNK         0.0864 
      6 C6        -79.7493   29.2296  -74.7960 C.3       11 UNK        -0.0881 
      7 S7        -79.7271   30.6109  -73.5988 S.3       11 UNK        -0.2682 
      8 C8        -77.9455   30.7698  -73.1976 C.3       11 UNK         0.0289 
      9 C9        -77.3859   29.7920  -72.1584 C.ar      11 UNK        -0.0687 
     10 C10       -78.1486   28.7639  -71.5948 C.ar      11 UNK        -0.0823 
     11 C11       -77.5723   27.8330  -70.7274 C.ar      11 UNK        -0.0830 
     12 C12       -76.2386   27.9849  -70.3439 C.ar      11 UNK        -0.1021 
     13 C13       -75.4702   29.0379  -70.8480 C.ar      11 UNK        -0.0753 
     14 C14       -76.0467   29.9201  -71.7728 C.ar      11 UNK        -0.0933 
     15 C15       -74.0065   29.1558  -70.4305 C.3       11 UNK         0.0166 
     16 S16       -73.4255   30.8772  -70.2433 S.3       11 UNK        -0.2615 
     17 C17       -71.7049   30.7341  -70.8427 C.3       11 UNK        -0.0865 
     18 CA        -71.5622   31.1098  -72.3432 C.3       10 UNK         0.0862 
     19 C         -70.0681   31.1448  -72.7789 C.2       10 UNK         0.5551 
     20 N         -69.6450   30.3783  -73.7768 N.am      10 UNK        -0.7319 
     21 O         -69.2787   31.8898  -72.2034 O.2       10 UNK        -0.5018 
     22 N         -72.4247   30.2689  -73.1885 N.am      10 UNK        -0.4509 
     23 C         -72.9397   30.6088  -74.3718 C.2       10 UNK         0.4899 
     24 O         -72.7009   31.6722  -74.9460 O.2       10 UNK        -0.4839 
     25 CA        -73.8842   29.5714  -75.0085 C.3       9 UNK         0.0222 
     26 CB        -74.6794   30.1516  -76.1918 C.3       9 UNK        -0.1966 
     27 N         -73.1840   28.3551  -75.4369 N.am      9 UNK        -0.4218 
     28 C         -72.7002   27.4062  -74.6219 C.2       9 UNK         0.5020 
     29 O         -72.7931   27.4514  -73.3940 O.2       9 UNK        -0.5274 
     30 CA        -71.9984   26.2160  -75.2937 C.3       8 UNK         0.0270 
     31 CB        -71.5285   25.1530  -74.2821 C.3       8 UNK        -0.1976 
     32 N         -72.9098   25.5907  -76.2485 N.am      8 UNK        -0.4313 
     33 C         -72.7724   25.6165  -77.5792 C.2       8 UNK         0.5041 
     34 O         -71.8255   26.1447  -78.1635 O.2       8 UNK        -0.5577 
     35 CA        -73.9012   24.9723  -78.4007 C.3       7 UNK         0.0284 
     36 CB        -73.7601   23.4421  -78.4158 C.3       7 UNK        -0.1958 
     37 N         -75.2351   25.3427  -77.9204 N.am      7 UNK        -0.4454 
     38 C         -75.7325   26.5880  -77.9398 C.2       7 UNK         0.5089 
     39 O         -75.1266   27.5608  -78.3886 O.2       7 UNK        -0.5125 
     40 CA        -77.1433   26.7824  -77.3643 C.3       6 UNK         0.0408 
     41 CB        -78.2052   26.4544  -78.4237 C.3       6 UNK        -0.1791 
     42 N         -77.3504   25.9764  -76.1566 N.am      6 UNK        -0.4762 
     43 C         -76.9594   26.3665  -74.9332 C.2       6 UNK         0.5007 
     44 O         -76.5157   27.4876  -74.6989 O.2       6 UNK        -0.5032 
     45 CA        -77.0511   25.3516  -73.7726 C.3       5 UNK         0.0783 
     46 C46       -78.3124   25.5784  -72.8975 C.3       11 UNK        -0.0857 
     47 S47       -78.0154   25.1134  -71.1560 S.3       11 UNK        -0.2512 
     48 C48       -78.3879   26.6469  -70.2325 C.3       11 UNK         0.0225 
     49 N         -76.9712   23.9657  -74.2404 N.am      5 UNK        -0.4615 
     50 C         -75.8669   23.3911  -74.7336 C.2       4 UNK         0.5053 
     51 O         -74.7822   23.9639  -74.8277 O.2       4 UNK        -0.5105 
     52 CA        -76.0087   21.9524  -75.2626 C.3       4 UNK         0.0263 
     53 CB        -75.7779   20.9403  -74.1298 C.3       4 UNK        -0.1981 
     54 N         -77.3016   21.6862  -75.9030 N.am      4 UNK        -0.4224 
     55 C         -77.7839   22.3480  -76.9647 C.2       3 UNK         0.4895 
     56 O         -77.1692   23.2510  -77.5346 O.2       3 UNK        -0.5091 
     57 CA        -79.1987   21.9852  -77.4602 C.3       3 UNK         0.0250 
     58 CB        -79.8752   20.8402  -76.6708 C.3       3 UNK        -0.1996 
     59 N         -80.0778   23.1627  -77.5044 N.am      3 UNK        -0.4254 
     60 C         -80.3657   23.9810  -76.4815 C.2       2 UNK         0.5004 
     61 O         -79.9189   23.8420  -75.3402 O.2       2 UNK        -0.5226 
     62 CA        -81.3244   25.1404  -76.7777 C.3       2 UNK         0.0269 
     63 CB        -82.7859   24.6605  -76.7482 C.3       2 UNK        -0.1926 
     64 N         -81.1421   26.1828  -75.7685 N.am      2 UNK        -0.4687 
     65 C         -81.2365   27.5037  -75.9736 C.2       1 UNK         0.5165 
     66 O         -81.4584   27.9995  -77.0789 O.2       1 UNK        -0.5079 
     67 H67       -83.1550   25.7472  -71.6918 H         1 UNK         0.0900 
     68 H68       -81.4397   26.0871  -71.4948 H         1 UNK         0.0900 
     69 H69       -82.6433   27.2091  -70.8441 H         1 UNK         0.0900 
     70 H70       -80.4176   27.5403  -72.9552 H         1 UNK         0.2959 
     71 H71       -81.8954   29.1638  -74.8368 H         1 UNK         0.1079 
     72 H72       -78.9040   28.5690  -74.6078 H         1 UNK         0.0837 
     73 H73       -79.5852   29.6572  -75.7872 H         1 UNK         0.0837 
     74 H74       -77.7787   31.7848  -72.8343 H         1 UNK         0.0685 
     75 H75       -77.3687   30.6747  -74.1191 H         1 UNK         0.0685 
     76 H76       -79.1877   28.6527  -71.8572 H         1 UNK         0.1434 
     77 H77       -75.7942   27.2677  -69.6672 H         1 UNK         0.1329 
     78 H78       -75.4479   30.7110  -72.2024 H         1 UNK         0.1335 
     79 H79       -73.4051   28.6301  -71.1694 H         1 UNK         0.0680 
     80 H80       -73.8385   28.6416  -69.4829 H         1 UNK         0.0680 
     81 H81       -71.3274   29.7269  -70.6562 H         1 UNK         0.1032 
     82 H82       -71.0939   31.3981  -70.2280 H         1 UNK         0.1032 
     83 H83       -71.9147   32.1377  -72.4485 H         1 UNK         0.0461 
     84 H84       -70.2901   29.7765  -74.2613 H         1 UNK         0.3453 
     85 H85       -68.6763   30.4135  -74.0528 H         1 UNK         0.3453 
     86 H86       -72.6165   29.3297  -72.8539 H         1 UNK         0.2984 
     87 H87       -74.6080   29.2919  -74.2408 H         1 UNK         0.0554 
     88 H88       -75.4537   29.4591  -76.5190 H         1 UNK         0.0847 
     89 H89       -74.0380   30.3719  -77.0458 H         1 UNK         0.0847 
     90 H90       -75.1827   31.0774  -75.9102 H         1 UNK         0.0847 
     91 H91       -73.0684   28.2311  -76.4333 H         1 UNK         0.3141 
     92 H92       -71.1141   26.6095  -75.7990 H         1 UNK         0.0743 
     93 H93       -72.3626   24.7418  -73.7118 H         1 UNK         0.0784 
     94 H94       -71.0262   24.3253  -74.7830 H         1 UNK         0.0784 
     95 H95       -70.8214   25.5776  -73.5683 H         1 UNK         0.0784 
     96 H96       -73.7149   25.1153  -75.8427 H         1 UNK         0.3213 
     97 H97       -73.8113   25.3314  -79.4282 H         1 UNK         0.0855 
     98 H98       -73.8026   23.0235  -77.4107 H         1 UNK         0.0814 
     99 H99       -72.8049   23.1450  -78.8506 H         1 UNK         0.0814 
    100 H100      -74.5468   22.9746  -79.0085 H         1 UNK         0.0814 
    101 H101      -75.8399   24.5870  -77.6081 H         1 UNK         0.3105 
    102 H102      -77.2548   27.8397  -77.1146 H         1 UNK         0.0547 
    103 H103      -77.9992   26.9800  -79.3572 H         1 UNK         0.0837 
    104 H104      -78.2468   25.3902  -78.6540 H         1 UNK         0.0837 
    105 H105      -79.1911   26.7752  -78.0963 H         1 UNK         0.0837 
    106 H106      -77.6652   25.0231  -76.2867 H         1 UNK         0.3020 
    107 H107      -76.1667   25.5474  -73.1600 H         1 UNK         0.1245 
    108 H108      -79.1587   24.9972  -73.2598 H         1 UNK         0.0781 
    109 H109      -78.6438   26.6112  -72.9460 H         1 UNK         0.0781 
    110 H110      -78.1810   26.4791  -69.1745 H         1 UNK         0.0836 
    111 H111      -79.4554   26.8592  -70.2983 H         1 UNK         0.0836 
    112 H112      -77.8406   23.4484  -74.2510 H         1 UNK         0.3022 
    113 H113      -75.2341   21.7996  -76.0155 H         1 UNK         0.0747 
    114 H114      -75.7826   19.9164  -74.5042 H         1 UNK         0.0793 
    115 H115      -74.8105   21.1040  -73.6526 H         1 UNK         0.0793 
    116 H116      -76.5410   21.0192  -73.3543 H         1 UNK         0.0793 
    117 H117      -77.8786   20.9711  -75.4843 H         1 UNK         0.3047 
    118 H118      -79.0765   21.6494  -78.4911 H         1 UNK         0.0822 
    119 H119      -80.0328   21.0964  -75.6223 H         1 UNK         0.0807 
    120 H120      -79.2826   19.9251  -76.7093 H         1 UNK         0.0807 
    121 H121      -80.8499   20.6001  -77.0958 H         1 UNK         0.0807 
    122 H122      -80.4769   23.3675  -78.4100 H         1 UNK         0.2946 
    123 H123      -81.0977   25.5333  -77.7704 H         1 UNK         0.1144 
    124 H124      -82.9616   23.8818  -77.4914 H         1 UNK         0.0793 
    125 H125      -83.4746   25.4769  -76.9669 H         1 UNK         0.0793 
    126 H126      -83.0544   24.2501  -75.7738 H         1 UNK         0.0793 
    127 H127      -80.9084   25.8387  -74.8472 H         1 UNK         0.2896 
@<TRIPOS>BOND
     1    1    2 1    
     2    1   67 1    
     3    1   68 1    
     4    1   69 1    
     5    2    3 2    
     6    2    4 am   BACKBONE|DICT|INTERRES
     7    4    5 1    
     8    4   70 1    
     9    5    6 1    
    10    5   65 1    
    11    5   71 1    
    12    6    7 1    
    13    6   72 1    
    14    6   73 1    
    15    7    8 1    
    16    8    9 1    
    17    8   74 1    
    18    8   75 1    
    19    9   10 ar   
    20    9   14 ar   
    21   10   11 ar   
    22   10   76 1    
    23   11   12 ar   
    24   11   48 1    
    25   12   13 ar   
    26   12   77 1    
    27   13   14 ar   
    28   13   15 1    
    29   14   78 1    
    30   15   16 1    
    31   15   79 1    
    32   15   80 1    
    33   16   17 1    
    34   17   18 1    
    35   17   81 1    
    36   17   82 1    
    37   18   19 1    
    38   18   22 1    
    39   18   83 1    
    40   19   20 am   BACKBONE|DICT|INTERRES
    41   19   21 2    
    42   20   84 1    
    43   20   85 1    
    44   22   23 am   BACKBONE|DICT|INTERRES
    45   22   86 1    
    46   23   24 2    
    47   23   25 1    
    48   25   26 1    
    49   25   27 1    
    50   25   87 1    
    51   26   88 1    
    52   26   89 1    
    53   26   90 1    
    54   27   28 am   BACKBONE|DICT|INTERRES
    55   27   91 1    
    56   28   29 2    
    57   28   30 1    
    58   30   31 1    
    59   30   32 1    
    60   30   92 1    
    61   31   93 1    
    62   31   94 1    
    63   31   95 1    
    64   32   33 am   BACKBONE|DICT|INTERRES
    65   32   96 1    
    66   33   34 2    
    67   33   35 1    
    68   35   36 1    
    69   35   37 1    
    70   35   97 1    
    71   36   98 1    
    72   36   99 1    
    73   36  100 1    
    74   37   38 am   BACKBONE|DICT|INTERRES
    75   37  101 1    
    76   38   39 2    
    77   38   40 1    
    78   40   41 1    
    79   40   42 1    
    80   40  102 1    
    81   41  103 1    
    82   41  104 1    
    83   41  105 1    
    84   42   43 am   BACKBONE|DICT|INTERRES
    85   42  106 1    
    86   43   44 2    
    87   43   45 1    
    88   45   46 1    
    89   45   49 1    
    90   45  107 1    
    91   46   47 1    
    92   46  108 1    
    93   46  109 1    
    94   47   48 1    
    95   48  110 1    
    96   48  111 1    
    97   49   50 am   BACKBONE|DICT|INTERRES
    98   49  112 1    
    99   50   51 2    
   100   50   52 1    
   101   52   53 1    
   102   52   54 1    
   103   52  113 1    
   104   53  114 1    
   105   53  115 1    
   106   53  116 1    
   107   54   55 am   BACKBONE|DICT|INTERRES
   108   54  117 1    
   109   55   56 2    
   110   55   57 1    
   111   57   58 1    
   112   57   59 1    
   113   57  118 1    
   114   58  119 1    
   115   58  120 1    
   116   58  121 1    
   117   59   60 am   BACKBONE|DICT|INTERRES
   118   59  122 1    
   119   60   61 2    
   120   60   62 1    
   121   62   63 1    
   122   62   64 1    
   123   62  123 1    
   124   63  124 1    
   125   63  125 1    
   126   63  126 1    
   127   64   65 am   BACKBONE|DICT|INTERRES
   128   64  127 1    
   129   65   66 2    
@<TRIPOS>SUBSTRUCTURE
     1 UNK         1 GROUP             0       ****    0 ROOT    
