@<TRIPOS>MOLECULE
3R135
127   129    1
SMALL
USER_CHARGES


@<TRIPOS>ATOM
      1 CA        -79.9383   24.0321  -68.3783 C.3       0 UNK        -0.1998 
      2 C         -81.0009   24.1868  -69.4557 C.2       0 UNK         0.4909 
      3 O         -82.0335   23.5187  -69.3989 O.2       0 UNK        -0.5240 
      4 N         -80.7547   25.0604  -70.4406 N.am      1 UNK        -0.4739 
      5 CA        -81.6540   25.3341  -71.5706 C.3       1 UNK         0.0864 
      6 C6        -81.4343   26.7525  -72.1511 C.3       11 UNK        -0.0881 
      7 S7        -79.7074   27.1135  -72.6168 S.3       11 UNK        -0.2682 
      8 C8        -79.7297   28.9312  -72.5073 C.3       11 UNK         0.0289 
      9 C9        -78.4533   29.5430  -73.0646 C.ar      11 UNK        -0.0687 
     10 C10       -78.4723   30.2610  -74.2655 C.ar      11 UNK        -0.0823 
     11 C11       -77.2995   30.8147  -74.7900 C.ar      11 UNK        -0.0830 
     12 C12       -76.1024   30.6603  -74.0789 C.ar      11 UNK        -0.1021 
     13 C13       -76.0744   29.9620  -72.8678 C.ar      11 UNK        -0.0753 
     14 C14       -77.2518   29.4036  -72.3669 C.ar      11 UNK        -0.0933 
     15 C15       -74.7684   29.7963  -72.1104 C.3       11 UNK         0.0166 
     16 S16       -74.2312   31.3568  -71.3407 S.3       11 UNK        -0.2615 
     17 C17       -72.8259   30.8056  -70.3085 C.3       11 UNK        -0.0865 
     18 CA        -71.4391   31.0035  -70.9937 C.3       10 UNK         0.0862 
     19 C         -70.2447   30.8326  -70.0035 C.2       10 UNK         0.5551 
     20 N         -69.0902   30.3457  -70.4423 N.am      10 UNK        -0.7319 
     21 O         -70.3508   31.1767  -68.8286 O.2       10 UNK        -0.5018 
     22 N         -71.3162   30.2432  -72.2525 N.am      10 UNK        -0.4509 
     23 C         -71.3554   28.9098  -72.3653 C.2       10 UNK         0.4899 
     24 O         -71.3975   28.1277  -71.4126 O.2       10 UNK        -0.4839 
     25 CA        -71.3927   28.3536  -73.7907 C.3       9 UNK         0.0222 
     26 CB        -69.9978   27.8873  -74.2385 C.3       9 UNK        -0.1966 
     27 N         -72.3178   27.2230  -73.8020 N.am      9 UNK        -0.4218 
     28 C         -73.3062   27.0353  -74.6814 C.2       9 UNK         0.5020 
     29 O         -73.5361   27.7787  -75.6381 O.2       9 UNK        -0.5274 
     30 CA        -74.2110   25.8143  -74.4429 C.3       8 UNK         0.0270 
     31 CB        -75.5724   26.2492  -73.8714 C.3       8 UNK        -0.1976 
     32 N         -74.4161   25.0741  -75.6893 N.am      8 UNK        -0.4313 
     33 C         -73.4457   24.3891  -76.3174 C.2       8 UNK         0.5041 
     34 O         -72.3265   24.2103  -75.8337 O.2       8 UNK        -0.5577 
     35 CA        -73.7321   23.8170  -77.7144 C.3       7 UNK         0.0284 
     36 CB        -73.9725   22.2976  -77.6646 C.3       7 UNK        -0.1958 
     37 N         -74.8425   24.4981  -78.3827 N.am      7 UNK        -0.4454 
     38 C         -74.9122   24.7321  -79.6994 C.2       7 UNK         0.5089 
     39 O         -74.0939   24.3168  -80.5207 O.2       7 UNK        -0.5125 
     40 CA        -76.0817   25.6053  -80.1764 C.3       6 UNK         0.0408 
     41 CB        -77.3454   24.7563  -80.3877 C.3       6 UNK        -0.1791 
     42 N         -76.3641   26.6688  -79.2129 N.am      6 UNK        -0.4762 
     43 C         -75.7571   27.8633  -79.1698 C.2       6 UNK         0.5007 
     44 O         -74.9295   28.2218  -80.0093 O.2       6 UNK        -0.5032 
     45 CA        -76.0824   28.8010  -77.9776 C.3       5 UNK         0.0783 
     46 C46       -76.3784   30.2635  -78.4145 C.3       11 UNK        -0.0857 
     47 S47       -75.8826   31.4773  -77.1449 S.3       11 UNK        -0.2512 
     48 C48       -77.3643   31.6271  -76.0852 C.3       11 UNK         0.0225 
     49 N         -77.1000   28.2669  -77.0595 N.am      5 UNK        -0.4615 
     50 C         -78.3919   28.0243  -77.3230 C.2       4 UNK         0.5053 
     51 O         -78.9322   28.2393  -78.4085 O.2       4 UNK        -0.5105 
     52 CA        -79.2012   27.3793  -76.1869 C.3       4 UNK         0.0263 
     53 CB        -80.6357   27.9399  -76.1446 C.3       4 UNK        -0.1981 
     54 N         -79.2830   25.9167  -76.2590 N.am      4 UNK        -0.4224 
     55 C         -78.2947   25.0335  -76.4593 C.2       3 UNK         0.4895 
     56 O         -77.1125   25.3256  -76.6683 O.2       3 UNK        -0.5091 
     57 CA        -78.7123   23.5612  -76.3811 C.3       3 UNK         0.0250 
     58 CB        -77.5386   22.5902  -76.6146 C.3       3 UNK        -0.1996 
     59 N         -79.3320   23.2920  -75.0825 N.am      3 UNK        -0.4254 
     60 C         -80.2001   22.2998  -74.8502 C.2       2 UNK         0.5004 
     61 O         -80.6326   21.5502  -75.7268 O.2       2 UNK        -0.5226 
     62 CA        -80.6473   22.0778  -73.3964 C.3       2 UNK         0.0269 
     63 CB        -79.7380   21.0434  -72.7124 C.3       2 UNK        -0.1926 
     64 N         -80.6841   23.2935  -72.5787 N.am      2 UNK        -0.4687 
     65 C         -81.6338   24.2370  -72.6615 C.2       1 UNK         0.5165 
     66 O         -82.5014   24.2440  -73.5362 O.2       1 UNK        -0.5079 
     67 H67       -80.3554   24.2786  -67.4023 H         1 UNK         0.0900 
     68 H68       -79.5826   23.0026  -68.3470 H         1 UNK         0.0900 
     69 H69       -79.0814   24.6821  -68.5545 H         1 UNK         0.0900 
     70 H70       -79.8915   25.5868  -70.4453 H         1 UNK         0.2959 
     71 H71       -82.6746   25.3170  -71.1806 H         1 UNK         0.1079 
     72 H72       -82.0792   26.9268  -73.0146 H         1 UNK         0.0837 
     73 H73       -81.7465   27.4845  -71.4043 H         1 UNK         0.0837 
     74 H74       -79.8521   29.2300  -71.4652 H         1 UNK         0.0685 
     75 H75       -80.6001   29.3116  -73.0444 H         1 UNK         0.0685 
     76 H76       -79.4067   30.3968  -74.7905 H         1 UNK         0.1434 
     77 H77       -75.1873   31.0967  -74.4543 H         1 UNK         0.1329 
     78 H78       -77.2370   28.8548  -71.4351 H         1 UNK         0.1335 
     79 H79       -74.0135   29.4568  -72.8157 H         1 UNK         0.0680 
     80 H80       -74.8591   29.0211  -71.3480 H         1 UNK         0.0680 
     81 H81       -72.8769   31.3888  -69.3874 H         1 UNK         0.1032 
     82 H82       -72.9677   29.7682  -70.0024 H         1 UNK         0.1032 
     83 H83       -71.3825   32.0511  -71.2914 H         1 UNK         0.0461 
     84 H84       -68.3183   30.2477  -69.8017 H         1 UNK         0.3453 
     85 H85       -68.9884   30.0683  -71.4051 H         1 UNK         0.3453 
     86 H86       -71.2596   30.8029  -73.0915 H         1 UNK         0.2984 
     87 H87       -71.7411   29.1379  -74.4664 H         1 UNK         0.0554 
     88 H88       -70.0253   27.4754  -75.2475 H         1 UNK         0.0847 
     89 H89       -69.5954   27.1198  -73.5759 H         1 UNK         0.0847 
     90 H90       -69.2908   28.7177  -74.2460 H         1 UNK         0.0847 
     91 H91       -72.2357   26.6027  -73.0066 H         1 UNK         0.3141 
     92 H92       -73.7342   25.1443  -73.7240 H         1 UNK         0.0743 
     93 H93       -75.4502   26.7470  -72.9088 H         1 UNK         0.0784 
     94 H94       -76.0865   26.9477  -74.5317 H         1 UNK         0.0784 
     95 H95       -76.2305   25.3947  -73.7126 H         1 UNK         0.0784 
     96 H96       -75.3351   25.1714  -76.1077 H         1 UNK         0.3213 
     97 H97       -72.8240   23.9926  -78.2960 H         1 UNK         0.0855 
     98 H98       -74.8171   22.0379  -77.0294 H         1 UNK         0.0814 
     99 H99       -73.0992   21.7828  -77.2620 H         1 UNK         0.0814 
    100 H100      -74.1579   21.8891  -78.6581 H         1 UNK         0.0814 
    101 H101      -75.5798   24.8730  -77.7971 H         1 UNK         0.3105 
    102 H102      -75.8075   26.0492  -81.1358 H         1 UNK         0.0547 
    103 H103      -77.6768   24.2787  -79.4659 H         1 UNK         0.0837 
    104 H104      -78.1693   25.3623  -80.7646 H         1 UNK         0.0837 
    105 H105      -77.1648   23.9658  -81.1174 H         1 UNK         0.0837 
    106 H106      -77.0015   26.4449  -78.4590 H         1 UNK         0.3020 
    107 H107      -75.1532   28.8120  -77.4060 H         1 UNK         0.1245 
    108 H108      -77.4245   30.4053  -78.6875 H         1 UNK         0.0781 
    109 H109      -75.8113   30.5301  -79.3080 H         1 UNK         0.0781 
    110 H110      -77.4831   32.6770  -75.8153 H         1 UNK         0.0836 
    111 H111      -78.2504   31.3604  -76.6632 H         1 UNK         0.0836 
    112 H112      -76.7505   28.0248  -76.1436 H         1 UNK         0.3022 
    113 H113      -78.7054   27.6265  -75.2490 H         1 UNK         0.0747 
    114 H114      -80.6387   29.0296  -76.1503 H         1 UNK         0.0793 
    115 H115      -81.1641   27.6193  -75.2476 H         1 UNK         0.0793 
    116 H116      -81.2187   27.6158  -77.0077 H         1 UNK         0.0793 
    117 H117      -80.2053   25.5351  -76.1059 H         1 UNK         0.3047 
    118 H118      -79.4489   23.4042  -77.1723 H         1 UNK         0.0822 
    119 H119      -76.7710   22.7042  -75.8485 H         1 UNK         0.0807 
    120 H120      -77.0734   22.7638  -77.5849 H         1 UNK         0.0807 
    121 H121      -77.8696   21.5519  -76.6030 H         1 UNK         0.0807 
    122 H122      -79.0459   23.8810  -74.3119 H         1 UNK         0.2946 
    123 H123      -81.6586   21.6654  -73.4337 H         1 UNK         0.1144 
    124 H124      -79.7103   20.1118  -73.2798 H         1 UNK         0.0793 
    125 H125      -80.0963   20.7998  -71.7119 H         1 UNK         0.0793 
    126 H126      -78.7115   21.4018  -72.6249 H         1 UNK         0.0793 
    127 H127      -80.0111   23.3666  -71.8297 H         1 UNK         0.2896 
@<TRIPOS>BOND
     1    1    2 1    
     2    1   67 1    
     3    1   68 1    
     4    1   69 1    
     5    2    3 2    
     6    2    4 am   BACKBONE|DICT|INTERRES
     7    4    5 1    
     8    4   70 1    
     9    5    6 1    
    10    5   65 1    
    11    5   71 1    
    12    6    7 1    
    13    6   72 1    
    14    6   73 1    
    15    7    8 1    
    16    8    9 1    
    17    8   74 1    
    18    8   75 1    
    19    9   10 ar   
    20    9   14 ar   
    21   10   11 ar   
    22   10   76 1    
    23   11   12 ar   
    24   11   48 1    
    25   12   13 ar   
    26   12   77 1    
    27   13   14 ar   
    28   13   15 1    
    29   14   78 1    
    30   15   16 1    
    31   15   79 1    
    32   15   80 1    
    33   16   17 1    
    34   17   18 1    
    35   17   81 1    
    36   17   82 1    
    37   18   19 1    
    38   18   22 1    
    39   18   83 1    
    40   19   20 am   BACKBONE|DICT|INTERRES
    41   19   21 2    
    42   20   84 1    
    43   20   85 1    
    44   22   23 am   BACKBONE|DICT|INTERRES
    45   22   86 1    
    46   23   24 2    
    47   23   25 1    
    48   25   26 1    
    49   25   27 1    
    50   25   87 1    
    51   26   88 1    
    52   26   89 1    
    53   26   90 1    
    54   27   28 am   BACKBONE|DICT|INTERRES
    55   27   91 1    
    56   28   29 2    
    57   28   30 1    
    58   30   31 1    
    59   30   32 1    
    60   30   92 1    
    61   31   93 1    
    62   31   94 1    
    63   31   95 1    
    64   32   33 am   BACKBONE|DICT|INTERRES
    65   32   96 1    
    66   33   34 2    
    67   33   35 1    
    68   35   36 1    
    69   35   37 1    
    70   35   97 1    
    71   36   98 1    
    72   36   99 1    
    73   36  100 1    
    74   37   38 am   BACKBONE|DICT|INTERRES
    75   37  101 1    
    76   38   39 2    
    77   38   40 1    
    78   40   41 1    
    79   40   42 1    
    80   40  102 1    
    81   41  103 1    
    82   41  104 1    
    83   41  105 1    
    84   42   43 am   BACKBONE|DICT|INTERRES
    85   42  106 1    
    86   43   44 2    
    87   43   45 1    
    88   45   46 1    
    89   45   49 1    
    90   45  107 1    
    91   46   47 1    
    92   46  108 1    
    93   46  109 1    
    94   47   48 1    
    95   48  110 1    
    96   48  111 1    
    97   49   50 am   BACKBONE|DICT|INTERRES
    98   49  112 1    
    99   50   51 2    
   100   50   52 1    
   101   52   53 1    
   102   52   54 1    
   103   52  113 1    
   104   53  114 1    
   105   53  115 1    
   106   53  116 1    
   107   54   55 am   BACKBONE|DICT|INTERRES
   108   54  117 1    
   109   55   56 2    
   110   55   57 1    
   111   57   58 1    
   112   57   59 1    
   113   57  118 1    
   114   58  119 1    
   115   58  120 1    
   116   58  121 1    
   117   59   60 am   BACKBONE|DICT|INTERRES
   118   59  122 1    
   119   60   61 2    
   120   60   62 1    
   121   62   63 1    
   122   62   64 1    
   123   62  123 1    
   124   63  124 1    
   125   63  125 1    
   126   63  126 1    
   127   64   65 am   BACKBONE|DICT|INTERRES
   128   64  127 1    
   129   65   66 2    
@<TRIPOS>SUBSTRUCTURE
     1 UNK         1 GROUP             0       ****    0 ROOT    
