@<TRIPOS>MOLECULE
3R135
127   129    1
SMALL
USER_CHARGES


@<TRIPOS>ATOM
      1 CA        -85.4293   29.9818  -74.8944 C.3       0 UNK        -0.1998 
      2 C         -84.0836   29.2961  -75.0784 C.2       0 UNK         0.4909 
      3 O         -83.7130   28.9670  -76.2063 O.2       0 UNK        -0.5240 
      4 N         -83.3460   29.0878  -73.9811 N.am      1 UNK        -0.4739 
      5 CA        -82.0490   28.4021  -73.9642 C.3       1 UNK         0.0864 
      6 C6        -81.2754   28.6570  -72.6488 C.3       11 UNK        -0.0881 
      7 S7        -80.9602   30.4181  -72.2951 S.3       11 UNK        -0.2682 
      8 C8        -80.4697   30.3318  -70.5399 C.3       11 UNK         0.0289 
      9 C9        -79.0889   29.7124  -70.3634 C.ar      11 UNK        -0.0687 
     10 C10       -78.9374   28.3227  -70.3363 C.ar      11 UNK        -0.0823 
     11 C11       -77.6719   27.7421  -70.2214 C.ar      11 UNK        -0.0830 
     12 C12       -76.5541   28.5691  -70.0656 C.ar      11 UNK        -0.1021 
     13 C13       -76.6906   29.9610  -70.0805 C.ar      11 UNK        -0.0753 
     14 C14       -77.9604   30.5269  -70.2316 C.ar      11 UNK        -0.0933 
     15 C15       -75.4646   30.8532  -69.9424 C.3       11 UNK         0.0166 
     16 S16       -75.0536   31.7079  -71.4992 S.3       11 UNK        -0.2615 
     17 C17       -74.6344   30.3149  -72.6025 C.3       11 UNK        -0.0865 
     18 CA        -73.1256   30.2272  -72.9527 C.3       10 UNK         0.0862 
     19 C         -72.3072   29.5243  -71.8275 C.2       10 UNK         0.5551 
     20 N         -71.8337   28.2990  -72.0151 N.am      10 UNK        -0.7319 
     21 O         -72.0827   30.1078  -70.7704 O.2       10 UNK        -0.5018 
     22 N         -72.9551   29.6474  -74.2915 N.am      10 UNK        -0.4509 
     23 C         -71.8424   29.7005  -75.0296 C.2       10 UNK         0.4899 
     24 O         -70.8071   30.2782  -74.6926 O.2       10 UNK        -0.4839 
     25 CA        -71.9196   28.9847  -76.3899 C.3       9 UNK         0.0222 
     26 CB        -71.2314   29.8069  -77.4938 C.3       9 UNK        -0.1966 
     27 N         -71.3775   27.6218  -76.4088 N.am      9 UNK        -0.4218 
     28 C         -71.5210   26.6468  -75.4982 C.2       9 UNK         0.5020 
     29 O         -72.0493   26.7736  -74.3930 O.2       9 UNK        -0.5274 
     30 CA        -71.0677   25.2566  -75.9620 C.3       8 UNK         0.0270 
     31 CB        -70.8861   24.2665  -74.7963 C.3       8 UNK        -0.1976 
     32 N         -72.0921   24.7521  -76.8730 N.am      8 UNK        -0.4313 
     33 C         -72.1035   24.9632  -78.1948 C.2       8 UNK         0.5041 
     34 O         -71.1694   25.4786  -78.8115 O.2       8 UNK        -0.5577 
     35 CA        -73.3912   24.5868  -78.9426 C.3       7 UNK         0.0284 
     36 CB        -73.5951   23.0627  -78.9656 C.3       7 UNK        -0.1958 
     37 N         -74.5741   25.2412  -78.3755 N.am      7 UNK        -0.4454 
     38 C         -74.8149   26.5618  -78.4075 C.2       7 UNK         0.5089 
     39 O         -74.0744   27.3828  -78.9486 O.2       7 UNK        -0.5125 
     40 CA        -76.0987   27.0538  -77.7163 C.3       6 UNK         0.0408 
     41 CB        -77.3332   26.7951  -78.5943 C.3       6 UNK        -0.1791 
     42 N         -76.2755   26.4196  -76.4108 N.am      6 UNK        -0.4762 
     43 C         -75.6153   26.7798  -75.3016 C.2       6 UNK         0.5007 
     44 O         -74.9383   27.8055  -75.2232 O.2       6 UNK        -0.5032 
     45 CA        -75.6989   25.8457  -74.0764 C.3       5 UNK         0.0783 
     46 C46       -76.5549   26.4559  -72.9402 C.3       11 UNK        -0.0857 
     47 S47       -76.1890   25.6337  -71.3518 S.3       11 UNK        -0.2512 
     48 C48       -77.5357   26.2226  -70.2687 C.3       11 UNK         0.0225 
     49 N         -76.1521   24.4940  -74.4253 N.am      5 UNK        -0.4615 
     50 C         -75.3881   23.5621  -75.0076 C.2       4 UNK         0.5053 
     51 O         -74.2193   23.7418  -75.3436 O.2       4 UNK        -0.5105 
     52 CA        -76.0586   22.2116  -75.3052 C.3       4 UNK         0.0263 
     53 CB        -76.1836   21.3707  -74.0246 C.3       4 UNK        -0.1981 
     54 N         -77.3745   22.3607  -75.9313 N.am      4 UNK        -0.4224 
     55 C         -77.5791   22.9111  -77.1365 C.2       3 UNK         0.4895 
     56 O         -76.6776   23.3396  -77.8557 O.2       3 UNK        -0.5091 
     57 CA        -79.0378   23.0483  -77.6024 C.3       3 UNK         0.0250 
     58 CB        -79.5122   21.7514  -78.2770 C.3       3 UNK        -0.1996 
     59 N         -79.9749   23.4226  -76.5365 N.am      3 UNK        -0.4254 
     60 C         -79.8912   24.5422  -75.8053 C.2       2 UNK         0.5004 
     61 O         -78.9652   25.3532  -75.8866 O.2       2 UNK        -0.5226 
     62 CA        -81.0081   24.7879  -74.7891 C.3       2 UNK         0.0269 
     63 CB        -80.6946   24.0864  -73.4543 C.3       2 UNK        -0.1926 
     64 N         -81.1131   26.2281  -74.5779 N.am      2 UNK        -0.4687 
     65 C         -82.2075   26.8801  -74.1743 C.2       1 UNK         0.5165 
     66 O         -83.2780   26.3209  -73.9181 O.2       1 UNK        -0.5079 
     67 H67       -85.6200   30.2318  -73.8508 H         1 UNK         0.0900 
     68 H68       -86.2320   29.3305  -75.2391 H         1 UNK         0.0900 
     69 H69       -85.4638   30.9031  -75.4752 H         1 UNK         0.0900 
     70 H70       -83.7007   29.3708  -73.0790 H         1 UNK         0.2959 
     71 H71       -81.4547   28.7918  -74.7941 H         1 UNK         0.1079 
     72 H72       -81.8124   28.2205  -71.8038 H         1 UNK         0.0837 
     73 H73       -80.3053   28.1595  -72.6947 H         1 UNK         0.0837 
     74 H74       -80.4808   31.3410  -70.1255 H         1 UNK         0.0685 
     75 H75       -81.2122   29.7660  -69.9751 H         1 UNK         0.0685 
     76 H76       -79.8084   27.6892  -70.4266 H         1 UNK         0.1434 
     77 H77       -75.5727   28.1272  -69.9587 H         1 UNK         0.1329 
     78 H78       -78.0661   31.6030  -70.2556 H         1 UNK         0.1335 
     79 H79       -75.6508   31.6004  -69.1697 H         1 UNK         0.0680 
     80 H80       -74.6001   30.2780  -69.6077 H         1 UNK         0.0680 
     81 H81       -75.2208   30.4704  -73.5098 H         1 UNK         0.1032 
     82 H82       -74.9904   29.3687  -72.1963 H         1 UNK         0.1032 
     83 H83       -72.7374   31.2455  -73.0197 H         1 UNK         0.0461 
     84 H84       -71.2996   27.8584  -71.2844 H         1 UNK         0.3453 
     85 H85       -71.9893   27.8091  -72.8951 H         1 UNK         0.3453 
     86 H86       -73.7153   29.0581  -74.6271 H         1 UNK         0.2984 
     87 H87       -72.9724   28.9022  -76.6653 H         1 UNK         0.0554 
     88 H88       -71.4171   29.3806  -78.4801 H         1 UNK         0.0847 
     89 H89       -70.1519   29.8581  -77.3463 H         1 UNK         0.0847 
     90 H90       -71.6072   30.8309  -77.5107 H         1 UNK         0.0847 
     91 H91       -70.9599   27.3433  -77.2872 H         1 UNK         0.3141 
     92 H92       -70.1084   25.3523  -76.4755 H         1 UNK         0.0743 
     93 H93       -70.1270   24.6237  -74.0995 H         1 UNK         0.0784 
     94 H94       -71.8075   24.1274  -74.2296 H         1 UNK         0.0784 
     95 H95       -70.5655   23.2885  -75.1553 H         1 UNK         0.0784 
     96 H96       -72.9238   24.3650  -76.4254 H         1 UNK         0.3213 
     97 H97       -73.2853   24.9276  -79.9748 H         1 UNK         0.0855 
     98 H98       -72.7206   22.5568  -79.3768 H         1 UNK         0.0814 
     99 H99       -74.4491   22.7889  -79.5855 H         1 UNK         0.0814 
    100 H100      -73.7684   22.6595  -77.9672 H         1 UNK         0.0814 
    101 H101      -75.2748   24.6287  -77.9653 H         1 UNK         0.3105 
    102 H102      -76.0137   28.1332  -77.5731 H         1 UNK         0.0547 
    103 H103      -77.2429   27.3096  -79.5517 H         1 UNK         0.0837 
    104 H104      -77.4684   25.7351  -78.8071 H         1 UNK         0.0837 
    105 H105      -78.2427   27.1571  -78.1146 H         1 UNK         0.0837 
    106 H106      -76.9081   25.6293  -76.3621 H         1 UNK         0.3020 
    107 H107      -74.6692   25.7698  -73.7155 H         1 UNK         0.1245 
    108 H108      -77.6204   26.3766  -73.1646 H         1 UNK         0.0781 
    109 H109      -76.3443   27.5193  -72.8186 H         1 UNK         0.0781 
    110 H110      -77.3591   25.8546  -69.2574 H         1 UNK         0.0836 
    111 H111      -78.4663   25.7626  -70.6052 H         1 UNK         0.0836 
    112 H112      -77.1153   24.2775  -74.2183 H         1 UNK         0.3022 
    113 H113      -75.4164   21.6719  -76.0048 H         1 UNK         0.0747 
    114 H114      -76.5737   20.3758  -74.2401 H         1 UNK         0.0793 
    115 H115      -75.2102   21.2389  -73.5496 H         1 UNK         0.0793 
    116 H116      -76.8423   21.8387  -73.2918 H         1 UNK         0.0793 
    117 H117      -78.1749   22.0370  -75.4083 H         1 UNK         0.3047 
    118 H118      -79.0633   23.8452  -78.3486 H         1 UNK         0.0822 
    119 H119      -80.5043   21.8702  -78.7132 H         1 UNK         0.0807 
    120 H120      -79.5513   20.9185  -77.5738 H         1 UNK         0.0807 
    121 H121      -78.8386   21.4636  -79.0857 H         1 UNK         0.0807 
    122 H122      -80.7605   22.8041  -76.3915 H         1 UNK         0.2946 
    123 H123      -81.9476   24.4094  -75.1992 H         1 UNK         0.1144 
    124 H124      -81.4888   24.2481  -72.7253 H         1 UNK         0.0793 
    125 H125      -79.7629   24.4489  -73.0175 H         1 UNK         0.0793 
    126 H126      -80.5967   23.0085  -73.5889 H         1 UNK         0.0793 
    127 H127      -80.2711   26.7366  -74.8208 H         1 UNK         0.2896 
@<TRIPOS>BOND
     1    1    2 1    
     2    1   67 1    
     3    1   68 1    
     4    1   69 1    
     5    2    3 2    
     6    2    4 am   BACKBONE|DICT|INTERRES
     7    4    5 1    
     8    4   70 1    
     9    5    6 1    
    10    5   65 1    
    11    5   71 1    
    12    6    7 1    
    13    6   72 1    
    14    6   73 1    
    15    7    8 1    
    16    8    9 1    
    17    8   74 1    
    18    8   75 1    
    19    9   10 ar   
    20    9   14 ar   
    21   10   11 ar   
    22   10   76 1    
    23   11   12 ar   
    24   11   48 1    
    25   12   13 ar   
    26   12   77 1    
    27   13   14 ar   
    28   13   15 1    
    29   14   78 1    
    30   15   16 1    
    31   15   79 1    
    32   15   80 1    
    33   16   17 1    
    34   17   18 1    
    35   17   81 1    
    36   17   82 1    
    37   18   19 1    
    38   18   22 1    
    39   18   83 1    
    40   19   20 am   BACKBONE|DICT|INTERRES
    41   19   21 2    
    42   20   84 1    
    43   20   85 1    
    44   22   23 am   BACKBONE|DICT|INTERRES
    45   22   86 1    
    46   23   24 2    
    47   23   25 1    
    48   25   26 1    
    49   25   27 1    
    50   25   87 1    
    51   26   88 1    
    52   26   89 1    
    53   26   90 1    
    54   27   28 am   BACKBONE|DICT|INTERRES
    55   27   91 1    
    56   28   29 2    
    57   28   30 1    
    58   30   31 1    
    59   30   32 1    
    60   30   92 1    
    61   31   93 1    
    62   31   94 1    
    63   31   95 1    
    64   32   33 am   BACKBONE|DICT|INTERRES
    65   32   96 1    
    66   33   34 2    
    67   33   35 1    
    68   35   36 1    
    69   35   37 1    
    70   35   97 1    
    71   36   98 1    
    72   36   99 1    
    73   36  100 1    
    74   37   38 am   BACKBONE|DICT|INTERRES
    75   37  101 1    
    76   38   39 2    
    77   38   40 1    
    78   40   41 1    
    79   40   42 1    
    80   40  102 1    
    81   41  103 1    
    82   41  104 1    
    83   41  105 1    
    84   42   43 am   BACKBONE|DICT|INTERRES
    85   42  106 1    
    86   43   44 2    
    87   43   45 1    
    88   45   46 1    
    89   45   49 1    
    90   45  107 1    
    91   46   47 1    
    92   46  108 1    
    93   46  109 1    
    94   47   48 1    
    95   48  110 1    
    96   48  111 1    
    97   49   50 am   BACKBONE|DICT|INTERRES
    98   49  112 1    
    99   50   51 2    
   100   50   52 1    
   101   52   53 1    
   102   52   54 1    
   103   52  113 1    
   104   53  114 1    
   105   53  115 1    
   106   53  116 1    
   107   54   55 am   BACKBONE|DICT|INTERRES
   108   54  117 1    
   109   55   56 2    
   110   55   57 1    
   111   57   58 1    
   112   57   59 1    
   113   57  118 1    
   114   58  119 1    
   115   58  120 1    
   116   58  121 1    
   117   59   60 am   BACKBONE|DICT|INTERRES
   118   59  122 1    
   119   60   61 2    
   120   60   62 1    
   121   62   63 1    
   122   62   64 1    
   123   62  123 1    
   124   63  124 1    
   125   63  125 1    
   126   63  126 1    
   127   64   65 am   BACKBONE|DICT|INTERRES
   128   64  127 1    
   129   65   66 2    
@<TRIPOS>SUBSTRUCTURE
     1 UNK         1 GROUP             0       ****    0 ROOT    
