@<TRIPOS>MOLECULE
3R135
127   129    1
SMALL
USER_CHARGES


@<TRIPOS>ATOM
      1 CA        -78.4134   27.3414  -69.7999 C.3       0 UNK        -0.1998 
      2 C         -79.8030   26.9897  -70.3084 C.2       0 UNK         0.4909 
      3 O         -80.5464   26.2859  -69.6243 O.2       0 UNK        -0.5240 
      4 N         -80.1606   27.4815  -71.5014 N.am      1 UNK        -0.4739 
      5 CA        -81.4674   27.2752  -72.1412 C.3       1 UNK         0.0864 
      6 C6        -81.7066   28.2645  -73.3094 C.3       11 UNK        -0.0881 
      7 S7        -81.6751   30.0128  -72.7766 S.3       11 UNK        -0.2682 
      8 C8        -80.3343   30.7171  -73.7898 C.3       11 UNK         0.0289 
      9 C9        -78.9628   30.4538  -73.1846 C.ar      11 UNK        -0.0687 
     10 C10       -78.2663   29.2849  -73.4993 C.ar      11 UNK        -0.0823 
     11 C11       -77.0102   29.0280  -72.9385 C.ar      11 UNK        -0.0830 
     12 C12       -76.4445   29.9702  -72.0770 C.ar      11 UNK        -0.1021 
     13 C13       -77.1088   31.1633  -71.7874 C.ar      11 UNK        -0.0753 
     14 C14       -78.3759   31.3938  -72.3320 C.ar      11 UNK        -0.0933 
     15 C15       -76.4466   32.2100  -70.9055 C.3       11 UNK         0.0166 
     16 S16       -75.1178   33.0809  -71.8000 S.3       11 UNK        -0.2615 
     17 C17       -73.6247   32.2221  -71.1912 C.3       11 UNK        -0.0865 
     18 CA        -72.4775   32.1687  -72.2467 C.3       10 UNK         0.0862 
     19 C         -71.0812   31.7609  -71.6773 C.2       10 UNK         0.5551 
     20 N         -70.8767   31.7546  -70.3657 N.am      10 UNK        -0.7319 
     21 O         -70.1457   31.5076  -72.4338 O.2       10 UNK        -0.5018 
     22 N         -72.8257   31.4037  -73.4592 N.am      10 UNK        -0.4509 
     23 C         -72.9832   30.0741  -73.5367 C.2       10 UNK         0.4899 
     24 O         -73.0074   29.3328  -72.5513 O.2       10 UNK        -0.4839 
     25 CA        -73.1744   29.4704  -74.9491 C.3       9 UNK         0.0222 
     26 CB        -72.4902   30.2832  -76.0715 C.3       9 UNK        -0.1966 
     27 N         -72.7708   28.0579  -75.0210 N.am      9 UNK        -0.4218 
     28 C         -71.5553   27.5442  -74.7664 C.2       9 UNK         0.5020 
     29 O         -70.5522   28.2161  -74.5225 O.2       9 UNK        -0.5274 
     30 CA        -71.4337   26.0134  -74.7923 C.3       8 UNK         0.0270 
     31 CB        -72.1444   25.3910  -73.5769 C.3       8 UNK        -0.1976 
     32 N         -72.0007   25.4613  -76.0223 N.am      8 UNK        -0.4313 
     33 C         -71.2944   24.9649  -77.0474 C.2       8 UNK         0.5041 
     34 O         -70.0650   24.8849  -77.0580 O.2       8 UNK        -0.5577 
     35 CA        -72.0819   24.4573  -78.2729 C.3       7 UNK         0.0284 
     36 CB        -72.2594   22.9318  -78.2021 C.3       7 UNK        -0.1958 
     37 N         -73.3984   25.0815  -78.4194 N.am      7 UNK        -0.4454 
     38 C         -73.6019   26.3670  -78.7402 C.2       7 UNK         0.5089 
     39 O         -72.7014   27.1405  -79.0659 O.2       7 UNK        -0.5125 
     40 CA        -75.0479   26.8944  -78.6531 C.3       6 UNK         0.0408 
     41 CB        -75.6693   26.9809  -80.0560 C.3       6 UNK        -0.1791 
     42 N         -75.9432   26.1237  -77.7789 N.am      6 UNK        -0.4762 
     43 C         -75.7473   25.8676  -76.4761 C.2       6 UNK         0.5007 
     44 O         -74.7386   26.2150  -75.8620 O.2       6 UNK        -0.5032 
     45 CA        -76.8484   25.0851  -75.7315 C.3       5 UNK         0.0783 
     46 C46       -77.7454   26.0569  -74.9229 C.3       11 UNK        -0.0857 
     47 S47       -77.1920   26.2387  -73.1949 S.3       11 UNK        -0.2512 
     48 C48       -76.2179   27.7743  -73.2853 C.3       11 UNK         0.0225 
     49 N         -77.6423   24.2056  -76.6006 N.am      5 UNK        -0.4615 
     50 C         -77.1568   23.1532  -77.2765 C.2       4 UNK         0.5053 
     51 O         -75.9626   22.8502  -77.2912 O.2       4 UNK        -0.5105 
     52 CA        -78.1796   22.3007  -78.0450 C.3       4 UNK         0.0263 
     53 CB        -77.6318   20.9165  -78.4425 C.3       4 UNK        -0.1981 
     54 N         -79.3964   22.1356  -77.2475 N.am      4 UNK        -0.4224 
     55 C         -80.6486   22.2731  -77.7018 C.2       3 UNK         0.4895 
     56 O         -80.9292   22.5180  -78.8757 O.2       3 UNK        -0.5091 
     57 CA        -81.7903   22.1163  -76.6773 C.3       3 UNK         0.0250 
     58 CB        -82.3859   20.7008  -76.7552 C.3       3 UNK        -0.1996 
     59 N         -81.4080   22.4019  -75.2875 N.am      3 UNK        -0.4254 
     60 C         -81.0316   23.6042  -74.8304 C.2       2 UNK         0.5004 
     61 O         -80.9276   24.6017  -75.5483 O.2       2 UNK        -0.5226 
     62 CA        -80.6617   23.6790  -73.3365 C.3       2 UNK         0.0269 
     63 CB        -79.2960   23.0173  -73.0810 C.3       2 UNK        -0.1926 
     64 N         -80.6197   25.0576  -72.8380 N.am      2 UNK        -0.4687 
     65 C         -81.6994   25.8206  -72.6121 C.2       1 UNK         0.5165 
     66 O         -82.8547   25.4152  -72.7535 O.2       1 UNK        -0.5079 
     67 H67       -78.4519   27.6035  -68.7430 H         1 UNK         0.0900 
     68 H68       -77.9900   28.1880  -70.3387 H         1 UNK         0.0900 
     69 H69       -77.7435   26.4903  -69.9184 H         1 UNK         0.0900 
     70 H70       -79.5169   28.0796  -72.0014 H         1 UNK         0.2959 
     71 H71       -82.2295   27.4702  -71.3831 H         1 UNK         0.1079 
     72 H72       -80.9848   28.0968  -74.1098 H         1 UNK         0.0837 
     73 H73       -82.6870   28.0884  -73.7570 H         1 UNK         0.0837 
     74 H74       -80.3877   30.3259  -74.8070 H         1 UNK         0.0685 
     75 H75       -80.4960   31.7927  -73.8757 H         1 UNK         0.0685 
     76 H76       -78.7127   28.5793  -74.1811 H         1 UNK         0.1434 
     77 H77       -75.4683   29.7883  -71.6517 H         1 UNK         0.1329 
     78 H78       -78.9009   32.3115  -72.1044 H         1 UNK         0.1335 
     79 H79       -76.0598   31.7463  -69.9969 H         1 UNK         0.0680 
     80 H80       -77.1817   32.9467  -70.5780 H         1 UNK         0.0680 
     81 H81       -73.8717   31.2178  -70.8471 H         1 UNK         0.1032 
     82 H82       -73.3089   32.7747  -70.3055 H         1 UNK         0.1032 
     83 H83       -72.3261   33.1913  -72.5943 H         1 UNK         0.0461 
     84 H84       -69.9618   31.5122  -70.0186 H         1 UNK         0.3453 
     85 H85       -71.6134   31.9749  -69.7156 H         1 UNK         0.3453 
     86 H86       -72.8168   31.9333  -74.3180 H         1 UNK         0.2984 
     87 H87       -74.2472   29.4859  -75.1432 H         1 UNK         0.0554 
     88 H88       -72.5807   29.7773  -77.0332 H         1 UNK         0.0847 
     89 H89       -71.4274   30.4306  -75.8750 H         1 UNK         0.0847 
     90 H90       -72.9459   31.2665  -76.1901 H         1 UNK         0.0847 
     91 H91       -73.5243   27.4022  -75.2157 H         1 UNK         0.3141 
     92 H92       -70.3730   25.7637  -74.7199 H         1 UNK         0.0743 
     93 H93       -73.2186   25.5813  -73.5871 H         1 UNK         0.0784 
     94 H94       -71.9979   24.3113  -73.5456 H         1 UNK         0.0784 
     95 H95       -71.7507   25.7992  -72.6450 H         1 UNK         0.0784 
     96 H96       -73.0097   25.5348  -76.1186 H         1 UNK         0.3213 
     97 H97       -71.4929   24.6943  -79.1617 H         1 UNK         0.0855 
     98 H98       -72.8648   22.6353  -77.3443 H         1 UNK         0.0814 
     99 H99       -71.2950   22.4299  -78.1108 H         1 UNK         0.0814 
    100 H100      -72.7405   22.5456  -79.1009 H         1 UNK         0.0814 
    101 H101      -74.2015   24.5184  -78.1714 H         1 UNK         0.3105 
    102 H102      -74.9917   27.9048  -78.2426 H         1 UNK         0.0547 
    103 H103      -75.0432   27.5727  -80.7254 H         1 UNK         0.0837 
    104 H104      -75.7858   25.9947  -80.5072 H         1 UNK         0.0837 
    105 H105      -76.6491   27.4580  -80.0296 H         1 UNK         0.0837 
    106 H106      -76.7994   25.7890  -78.1970 H         1 UNK         0.3020 
    107 H107      -76.3280   24.4213  -75.0365 H         1 UNK         0.1245 
    108 H108      -78.7644   25.6837  -74.8687 H         1 UNK         0.0781 
    109 H109      -77.8324   27.0265  -75.4150 H         1 UNK         0.0781 
    110 H110      -75.7991   27.9003  -74.2807 H         1 UNK         0.0836 
    111 H111      -75.3661   27.6639  -72.6121 H         1 UNK         0.0836 
    112 H112      -78.6351   24.3943  -76.6477 H         1 UNK         0.3022 
    113 H113      -78.4040   22.8531  -78.9598 H         1 UNK         0.0747 
    114 H114      -78.3706   20.3459  -79.0054 H         1 UNK         0.0793 
    115 H115      -76.7474   21.0098  -79.0743 H         1 UNK         0.0793 
    116 H116      -77.3498   20.3292  -77.5678 H         1 UNK         0.0793 
    117 H117      -79.2624   21.9366  -76.2661 H         1 UNK         0.3047 
    118 H118      -82.5695   22.8289  -76.9569 H         1 UNK         0.0822 
    119 H119      -83.2591   20.6004  -76.1101 H         1 UNK         0.0807 
    120 H120      -81.6609   19.9401  -76.4627 H         1 UNK         0.0807 
    121 H121      -82.7093   20.4683  -77.7710 H         1 UNK         0.0807 
    122 H122      -81.4592   21.6278  -74.6401 H         1 UNK         0.2946 
    123 H123      -81.4244   23.1380  -72.7713 H         1 UNK         0.1144 
    124 H124      -79.3156   21.9575  -73.3374 H         1 UNK         0.0793 
    125 H125      -79.0133   23.0854  -72.0302 H         1 UNK         0.0793 
    126 H126      -78.5024   23.4775  -73.6691 H         1 UNK         0.0793 
    127 H127      -79.7074   25.4716  -72.7081 H         1 UNK         0.2896 
@<TRIPOS>BOND
     1    1    2 1    
     2    1   67 1    
     3    1   68 1    
     4    1   69 1    
     5    2    3 2    
     6    2    4 am   BACKBONE|DICT|INTERRES
     7    4    5 1    
     8    4   70 1    
     9    5    6 1    
    10    5   65 1    
    11    5   71 1    
    12    6    7 1    
    13    6   72 1    
    14    6   73 1    
    15    7    8 1    
    16    8    9 1    
    17    8   74 1    
    18    8   75 1    
    19    9   10 ar   
    20    9   14 ar   
    21   10   11 ar   
    22   10   76 1    
    23   11   12 ar   
    24   11   48 1    
    25   12   13 ar   
    26   12   77 1    
    27   13   14 ar   
    28   13   15 1    
    29   14   78 1    
    30   15   16 1    
    31   15   79 1    
    32   15   80 1    
    33   16   17 1    
    34   17   18 1    
    35   17   81 1    
    36   17   82 1    
    37   18   19 1    
    38   18   22 1    
    39   18   83 1    
    40   19   20 am   BACKBONE|DICT|INTERRES
    41   19   21 2    
    42   20   84 1    
    43   20   85 1    
    44   22   23 am   BACKBONE|DICT|INTERRES
    45   22   86 1    
    46   23   24 2    
    47   23   25 1    
    48   25   26 1    
    49   25   27 1    
    50   25   87 1    
    51   26   88 1    
    52   26   89 1    
    53   26   90 1    
    54   27   28 am   BACKBONE|DICT|INTERRES
    55   27   91 1    
    56   28   29 2    
    57   28   30 1    
    58   30   31 1    
    59   30   32 1    
    60   30   92 1    
    61   31   93 1    
    62   31   94 1    
    63   31   95 1    
    64   32   33 am   BACKBONE|DICT|INTERRES
    65   32   96 1    
    66   33   34 2    
    67   33   35 1    
    68   35   36 1    
    69   35   37 1    
    70   35   97 1    
    71   36   98 1    
    72   36   99 1    
    73   36  100 1    
    74   37   38 am   BACKBONE|DICT|INTERRES
    75   37  101 1    
    76   38   39 2    
    77   38   40 1    
    78   40   41 1    
    79   40   42 1    
    80   40  102 1    
    81   41  103 1    
    82   41  104 1    
    83   41  105 1    
    84   42   43 am   BACKBONE|DICT|INTERRES
    85   42  106 1    
    86   43   44 2    
    87   43   45 1    
    88   45   46 1    
    89   45   49 1    
    90   45  107 1    
    91   46   47 1    
    92   46  108 1    
    93   46  109 1    
    94   47   48 1    
    95   48  110 1    
    96   48  111 1    
    97   49   50 am   BACKBONE|DICT|INTERRES
    98   49  112 1    
    99   50   51 2    
   100   50   52 1    
   101   52   53 1    
   102   52   54 1    
   103   52  113 1    
   104   53  114 1    
   105   53  115 1    
   106   53  116 1    
   107   54   55 am   BACKBONE|DICT|INTERRES
   108   54  117 1    
   109   55   56 2    
   110   55   57 1    
   111   57   58 1    
   112   57   59 1    
   113   57  118 1    
   114   58  119 1    
   115   58  120 1    
   116   58  121 1    
   117   59   60 am   BACKBONE|DICT|INTERRES
   118   59  122 1    
   119   60   61 2    
   120   60   62 1    
   121   62   63 1    
   122   62   64 1    
   123   62  123 1    
   124   63  124 1    
   125   63  125 1    
   126   63  126 1    
   127   64   65 am   BACKBONE|DICT|INTERRES
   128   64  127 1    
   129   65   66 2    
@<TRIPOS>SUBSTRUCTURE
     1 UNK         1 GROUP             0       ****    0 ROOT    
