@<TRIPOS>MOLECULE
3R135
127   129    1
SMALL
USER_CHARGES


@<TRIPOS>ATOM
      1 CA        -83.4266   24.5620  -72.2545 C.3       0 UNK        -0.1998 
      2 C         -82.8945   25.4457  -73.3719 C.2       0 UNK         0.4909 
      3 O         -83.2454   25.2397  -74.5341 O.2       0 UNK        -0.5240 
      4 N         -82.0401   26.4204  -73.0308 N.am      1 UNK        -0.4739 
      5 CA        -81.3704   27.3450  -73.9542 C.3       1 UNK         0.0864 
      6 C6        -80.5088   28.3610  -73.1655 C.3       11 UNK        -0.0881 
      7 S7        -79.9436   29.7958  -74.1477 S.3       11 UNK        -0.2682 
      8 C8        -78.2542   29.3276  -74.6582 C.3       11 UNK         0.0289 
      9 C9        -77.3273   29.0646  -73.4792 C.ar      11 UNK        -0.0687 
     10 C10       -77.0843   27.7525  -73.0725 C.ar      11 UNK        -0.0823 
     11 C11       -76.2338   27.4761  -72.0015 C.ar      11 UNK        -0.0830 
     12 C12       -75.6289   28.5352  -71.3188 C.ar      11 UNK        -0.1021 
     13 C13       -75.8605   29.8584  -71.7139 C.ar      11 UNK        -0.0753 
     14 C14       -76.7071   30.1166  -72.7990 C.ar      11 UNK        -0.0933 
     15 C15       -75.2329   31.0148  -70.9483 C.3       11 UNK         0.0166 
     16 S16       -73.6113   31.4871  -71.6250 S.3       11 UNK        -0.2615 
     17 C17       -72.5007   30.3456  -70.7292 C.3       11 UNK        -0.0865 
     18 CA        -71.0930   30.2444  -71.3710 C.3       10 UNK         0.0862 
     19 C         -70.1446   29.3740  -70.4945 C.2       10 UNK         0.5551 
     20 N         -69.6433   28.2423  -70.9742 N.am      10 UNK        -0.7319 
     21 O         -69.8566   29.7381  -69.3571 O.2       10 UNK        -0.5018 
     22 N         -71.1830   29.8405  -72.7821 N.am      10 UNK        -0.4509 
     23 C         -70.2311   30.0155  -73.7066 C.2       10 UNK         0.4899 
     24 O         -69.1234   30.5001  -73.4739 O.2       10 UNK        -0.4839 
     25 CA        -70.5785   29.5837  -75.1421 C.3       9 UNK         0.0222 
     26 CB        -70.0333   28.1754  -75.4286 C.3       9 UNK        -0.1966 
     27 N         -72.0185   29.6032  -75.4124 N.am      9 UNK        -0.4218 
     28 C         -72.7739   30.7007  -75.5443 C.2       9 UNK         0.5020 
     29 O         -72.3224   31.8469  -75.5069 O.2       9 UNK        -0.5274 
     30 CA        -74.2810   30.4634  -75.7808 C.3       8 UNK         0.0270 
     31 CB        -75.0794   31.7789  -75.8541 C.3       8 UNK        -0.1976 
     32 N         -74.5357   29.6775  -76.9942 N.am      8 UNK        -0.4313 
     33 C         -74.3188   28.3625  -77.1179 C.2       8 UNK         0.5041 
     34 O         -73.8845   27.6530  -76.2039 O.2       8 UNK        -0.5577 
     35 CA        -74.5782   27.7407  -78.4938 C.3       7 UNK         0.0284 
     36 CB        -73.4319   28.0561  -79.4723 C.3       7 UNK        -0.1958 
     37 N         -74.6836   26.3019  -78.2965 N.am      7 UNK        -0.4454 
     38 C         -75.3292   25.4302  -79.0753 C.2       7 UNK         0.5089 
     39 O         -75.8440   25.7250  -80.1547 O.2       7 UNK        -0.5125 
     40 CA        -75.4281   23.9801  -78.5576 C.3       6 UNK         0.0408 
     41 CB        -74.3616   23.0998  -79.2288 C.3       6 UNK        -0.1791 
     42 N         -75.3163   23.8468  -77.0966 N.am      6 UNK        -0.4762 
     43 C         -76.1946   24.3574  -76.2211 C.2       6 UNK         0.5007 
     44 O         -77.1700   25.0320  -76.5530 O.2       6 UNK        -0.5032 
     45 CA        -75.9218   24.1261  -74.7271 C.3       5 UNK         0.0783 
     46 C46       -75.0573   25.2928  -74.1765 C.3       11 UNK        -0.0857 
     47 S47       -74.6325   25.1995  -72.4015 S.3       11 UNK        -0.2512 
     48 C48       -76.0220   26.0339  -71.5601 C.3       11 UNK         0.0225 
     49 N         -77.2326   23.9990  -74.0840 N.am      5 UNK        -0.4615 
     50 C         -77.5891   23.0071  -73.2594 C.2       4 UNK         0.5053 
     51 O         -76.8108   22.1510  -72.8387 O.2       4 UNK        -0.5105 
     52 CA        -79.0690   22.9334  -72.8544 C.3       4 UNK         0.0263 
     53 CB        -79.4165   23.9948  -71.7964 C.3       4 UNK        -0.1981 
     54 N         -79.9488   23.0822  -74.0156 N.am      4 UNK        -0.4224 
     55 C         -80.4146   22.0602  -74.7505 C.2       3 UNK         0.4895 
     56 O         -80.1464   20.8807  -74.5184 O.2       3 UNK        -0.5091 
     57 CA        -81.3555   22.3795  -75.9286 C.3       3 UNK         0.0250 
     58 CB        -82.8031   21.9935  -75.5816 C.3       3 UNK        -0.1996 
     59 N         -81.3138   23.7896  -76.3219 N.am      3 UNK        -0.4254 
     60 C         -80.4405   24.2957  -77.2055 C.2       2 UNK         0.5004 
     61 O         -79.6827   23.5987  -77.8810 O.2       2 UNK        -0.5226 
     62 CA        -80.3960   25.8298  -77.3741 C.3       2 UNK         0.0269 
     63 CB        -81.0915   26.2467  -78.6804 C.3       2 UNK        -0.1926 
     64 N         -80.9792   26.5890  -76.2607 N.am      2 UNK        -0.4687 
     65 C         -80.5437   26.5591  -74.9936 C.2       1 UNK         0.5165 
     66 O         -79.5818   25.8864  -74.6179 O.2       1 UNK        -0.5079 
     67 H67       -83.1298   24.9255  -71.2709 H         1 UNK         0.0900 
     68 H68       -84.5152   24.5288  -72.2886 H         1 UNK         0.0900 
     69 H69       -83.0500   23.5460  -72.3691 H         1 UNK         0.0900 
     70 H70       -81.7872   26.5246  -72.0587 H         1 UNK         0.2959 
     71 H71       -82.1548   27.8976  -74.4760 H         1 UNK         0.1079 
     72 H72       -81.1075   28.7780  -72.3540 H         1 UNK         0.0837 
     73 H73       -79.6759   27.8661  -72.6692 H         1 UNK         0.0837 
     74 H74       -77.8430   30.1308  -75.2693 H         1 UNK         0.0685 
     75 H75       -78.2992   28.4534  -75.3095 H         1 UNK         0.0685 
     76 H76       -77.5622   26.9362  -73.5937 H         1 UNK         0.1434 
     77 H77       -74.9921   28.3271  -70.4707 H         1 UNK         0.1329 
     78 H78       -76.8934   31.1363  -73.1072 H         1 UNK         0.1335 
     79 H79       -75.8920   31.8832  -70.9928 H         1 UNK         0.0680 
     80 H80       -75.1366   30.7659  -69.8903 H         1 UNK         0.0680 
     81 H81       -72.4277   30.6946  -69.6972 H         1 UNK         0.1032 
     82 H82       -72.9559   29.3563  -70.6850 H         1 UNK         0.1032 
     83 H83       -70.6613   31.2472  -71.3585 H         1 UNK         0.0461 
     84 H84       -69.8707   27.9412  -71.9077 H         1 UNK         0.3453 
     85 H85       -69.0279   27.6895  -70.3985 H         1 UNK         0.3453 
     86 H86       -72.0636   29.4425  -73.0714 H         1 UNK         0.2984 
     87 H87       -70.0945   30.2847  -75.8253 H         1 UNK         0.0554 
     88 H88       -68.9572   28.1298  -75.2553 H         1 UNK         0.0847 
     89 H89       -70.2054   27.8874  -76.4659 H         1 UNK         0.0847 
     90 H90       -70.4995   27.4230  -74.7910 H         1 UNK         0.0847 
     91 H91       -72.4925   28.7073  -75.5174 H         1 UNK         0.3141 
     92 H92       -74.6527   29.8996  -74.9220 H         1 UNK         0.0743 
     93 H93       -74.7451   32.4100  -76.6786 H         1 UNK         0.0784 
     94 H94       -76.1449   31.5953  -75.9853 H         1 UNK         0.0784 
     95 H95       -74.9631   32.3537  -74.9340 H         1 UNK         0.0784 
     96 H96       -74.8476   30.1952  -77.8037 H         1 UNK         0.3213 
     97 H97       -75.5243   28.1243  -78.8821 H         1 UNK         0.0855 
     98 H98       -72.4737   27.6927  -79.0984 H         1 UNK         0.0814 
     99 H99       -73.3340   29.1303  -79.6329 H         1 UNK         0.0814 
    100 H100      -73.6046   27.5997  -80.4471 H         1 UNK         0.0814 
    101 H101      -74.3294   25.9966  -77.3975 H         1 UNK         0.3105 
    102 H102      -76.4114   23.6025  -78.8468 H         1 UNK         0.0547 
    103 H103      -74.4771   22.0520  -78.9513 H         1 UNK         0.0837 
    104 H104      -73.3519   23.4118  -78.9592 H         1 UNK         0.0837 
    105 H105      -74.4389   23.1543  -80.3157 H         1 UNK         0.0837 
    106 H106      -74.5253   23.3202  -76.7528 H         1 UNK         0.3020 
    107 H107      -75.3648   23.1923  -74.6223 H         1 UNK         0.1245 
    108 H108      -75.4976   26.2592  -74.4102 H         1 UNK         0.0781 
    109 H109      -74.1014   25.3019  -74.7037 H         1 UNK         0.0781 
    110 H110      -75.8410   26.0034  -70.4848 H         1 UNK         0.0836 
    111 H111      -76.9340   25.4619  -71.7184 H         1 UNK         0.0836 
    112 H112      -77.9425   24.6342  -74.4388 H         1 UNK         0.3022 
    113 H113      -79.2367   21.9557  -72.3970 H         1 UNK         0.0747 
    114 H114      -80.4479   23.8911  -71.4601 H         1 UNK         0.0793 
    115 H115      -78.7798   23.8889  -70.9171 H         1 UNK         0.0793 
    116 H116      -79.2891   25.0099  -72.1716 H         1 UNK         0.0793 
    117 H117      -80.1297   24.0330  -74.3198 H         1 UNK         0.3047 
    118 H118      -81.0412   21.7592  -76.7709 H         1 UNK         0.0822 
    119 H119      -83.4770   22.1903  -76.4155 H         1 UNK         0.0807 
    120 H120      -83.1740   22.5406  -74.7152 H         1 UNK         0.0807 
    121 H121      -82.8779   20.9303  -75.3496 H         1 UNK         0.0807 
    122 H122      -81.9390   24.4201  -75.8274 H         1 UNK         0.2946 
    123 H123      -79.3432   26.1098  -77.4442 H         1 UNK         0.1144 
    124 H124      -80.9832   27.3156  -78.8652 H         1 UNK         0.0793 
    125 H125      -82.1566   26.0125  -78.6624 H         1 UNK         0.0793 
    126 H126      -80.6577   25.7274  -79.5362 H         1 UNK         0.0793 
    127 H127      -81.8048   27.1300  -76.4752 H         1 UNK         0.2896 
@<TRIPOS>BOND
     1    1    2 1    
     2    1   67 1    
     3    1   68 1    
     4    1   69 1    
     5    2    3 2    
     6    2    4 am   BACKBONE|DICT|INTERRES
     7    4    5 1    
     8    4   70 1    
     9    5    6 1    
    10    5   65 1    
    11    5   71 1    
    12    6    7 1    
    13    6   72 1    
    14    6   73 1    
    15    7    8 1    
    16    8    9 1    
    17    8   74 1    
    18    8   75 1    
    19    9   10 ar   
    20    9   14 ar   
    21   10   11 ar   
    22   10   76 1    
    23   11   12 ar   
    24   11   48 1    
    25   12   13 ar   
    26   12   77 1    
    27   13   14 ar   
    28   13   15 1    
    29   14   78 1    
    30   15   16 1    
    31   15   79 1    
    32   15   80 1    
    33   16   17 1    
    34   17   18 1    
    35   17   81 1    
    36   17   82 1    
    37   18   19 1    
    38   18   22 1    
    39   18   83 1    
    40   19   20 am   BACKBONE|DICT|INTERRES
    41   19   21 2    
    42   20   84 1    
    43   20   85 1    
    44   22   23 am   BACKBONE|DICT|INTERRES
    45   22   86 1    
    46   23   24 2    
    47   23   25 1    
    48   25   26 1    
    49   25   27 1    
    50   25   87 1    
    51   26   88 1    
    52   26   89 1    
    53   26   90 1    
    54   27   28 am   BACKBONE|DICT|INTERRES
    55   27   91 1    
    56   28   29 2    
    57   28   30 1    
    58   30   31 1    
    59   30   32 1    
    60   30   92 1    
    61   31   93 1    
    62   31   94 1    
    63   31   95 1    
    64   32   33 am   BACKBONE|DICT|INTERRES
    65   32   96 1    
    66   33   34 2    
    67   33   35 1    
    68   35   36 1    
    69   35   37 1    
    70   35   97 1    
    71   36   98 1    
    72   36   99 1    
    73   36  100 1    
    74   37   38 am   BACKBONE|DICT|INTERRES
    75   37  101 1    
    76   38   39 2    
    77   38   40 1    
    78   40   41 1    
    79   40   42 1    
    80   40  102 1    
    81   41  103 1    
    82   41  104 1    
    83   41  105 1    
    84   42   43 am   BACKBONE|DICT|INTERRES
    85   42  106 1    
    86   43   44 2    
    87   43   45 1    
    88   45   46 1    
    89   45   49 1    
    90   45  107 1    
    91   46   47 1    
    92   46  108 1    
    93   46  109 1    
    94   47   48 1    
    95   48  110 1    
    96   48  111 1    
    97   49   50 am   BACKBONE|DICT|INTERRES
    98   49  112 1    
    99   50   51 2    
   100   50   52 1    
   101   52   53 1    
   102   52   54 1    
   103   52  113 1    
   104   53  114 1    
   105   53  115 1    
   106   53  116 1    
   107   54   55 am   BACKBONE|DICT|INTERRES
   108   54  117 1    
   109   55   56 2    
   110   55   57 1    
   111   57   58 1    
   112   57   59 1    
   113   57  118 1    
   114   58  119 1    
   115   58  120 1    
   116   58  121 1    
   117   59   60 am   BACKBONE|DICT|INTERRES
   118   59  122 1    
   119   60   61 2    
   120   60   62 1    
   121   62   63 1    
   122   62   64 1    
   123   62  123 1    
   124   63  124 1    
   125   63  125 1    
   126   63  126 1    
   127   64   65 am   BACKBONE|DICT|INTERRES
   128   64  127 1    
   129   65   66 2    
@<TRIPOS>SUBSTRUCTURE
     1 UNK         1 GROUP             0       ****    0 ROOT    
