@<TRIPOS>MOLECULE
3R135
127   129    1
SMALL
USER_CHARGES


@<TRIPOS>ATOM
      1 CA        -83.6366   29.3809  -74.6218 C.3       0 UNK        -0.1998 
      2 C         -83.1631   28.1317  -73.8943 C.2       0 UNK         0.4909 
      3 O         -83.9806   27.2808  -73.5455 O.2       0 UNK        -0.5240 
      4 N         -81.8451   28.0142  -73.6764 N.am      1 UNK        -0.4739 
      5 CA        -81.1606   26.9107  -72.9782 C.3       1 UNK         0.0864 
      6 C6        -81.6975   26.6838  -71.5353 C.3       11 UNK        -0.0881 
      7 S7        -80.4042   26.2264  -70.3308 S.3       11 UNK        -0.2682 
      8 C8        -79.8841   27.8509  -69.6871 C.3       11 UNK         0.0289 
      9 C9        -78.8644   28.5141  -70.6017 C.ar      11 UNK        -0.0687 
     10 C10       -79.2677   29.4424  -71.5665 C.ar      11 UNK        -0.0823 
     11 C11       -78.3340   30.0238  -72.4319 C.ar      11 UNK        -0.0830 
     12 C12       -76.9799   29.6984  -72.2930 C.ar      11 UNK        -0.1021 
     13 C13       -76.5648   28.7740  -71.3298 C.ar      11 UNK        -0.0753 
     14 C14       -77.5108   28.1873  -70.4862 C.ar      11 UNK        -0.0933 
     15 C15       -75.1029   28.3699  -71.2361 C.3       11 UNK         0.0166 
     16 S16       -74.0825   29.6469  -70.4459 S.3       11 UNK        -0.2615 
     17 C17       -72.4416   28.8449  -70.5070 C.3       11 UNK        -0.0865 
     18 CA        -71.5914   29.2860  -71.7300 C.3       10 UNK         0.0862 
     19 C         -70.1090   28.8253  -71.5867 C.2       10 UNK         0.5551 
     20 N         -69.5360   28.0791  -72.5244 N.am      10 UNK        -0.7319 
     21 O         -69.4583   29.1623  -70.6005 O.2       10 UNK        -0.5018 
     22 N         -72.2231   28.8952  -73.0012 N.am      10 UNK        -0.4509 
     23 C         -72.0308   29.5103  -74.1737 C.2       10 UNK         0.4899 
     24 O         -71.3508   30.5291  -74.3083 O.2       10 UNK        -0.4839 
     25 CA        -72.7131   28.8682  -75.3987 C.3       9 UNK         0.0222 
     26 CB        -72.1288   29.3632  -76.7378 C.3       9 UNK        -0.1966 
     27 N         -72.7336   27.3993  -75.3685 N.am      9 UNK        -0.4218 
     28 C         -71.6875   26.5653  -75.2711 C.2       9 UNK         0.5020 
     29 O         -70.5255   26.9330  -75.0923 O.2       9 UNK        -0.5274 
     30 CA        -71.9880   25.0622  -75.4050 C.3       8 UNK         0.0270 
     31 CB        -72.4424   24.4531  -74.0691 C.3       8 UNK        -0.1976 
     32 N         -72.9573   24.7673  -76.4704 N.am      8 UNK        -0.4313 
     33 C         -72.6443   24.8365  -77.7742 C.2       8 UNK         0.5041 
     34 O         -71.5382   25.1802  -78.1940 O.2       8 UNK        -0.5577 
     35 CA        -73.7234   24.4427  -78.7881 C.3       7 UNK         0.0284 
     36 CB        -73.9833   22.9254  -78.7650 C.3       7 UNK        -0.1958 
     37 N         -74.9719   25.1744  -78.5625 N.am      7 UNK        -0.4454 
     38 C         -75.3988   26.1740  -79.3472 C.2       7 UNK         0.5089 
     39 O         -74.7517   26.6310  -80.2905 O.2       7 UNK        -0.5125 
     40 CA        -76.7990   26.7452  -79.0734 C.3       6 UNK         0.0408 
     41 CB        -77.8779   25.8477  -79.7003 C.3       6 UNK        -0.1791 
     42 N         -77.0972   26.9509  -77.6568 N.am      6 UNK        -0.4762 
     43 C         -76.5822   27.9400  -76.9124 C.2       6 UNK         0.5007 
     44 O         -75.7167   28.7174  -77.3141 O.2       6 UNK        -0.5032 
     45 CA        -77.1331   28.0902  -75.4819 C.3       5 UNK         0.0783 
     46 C46       -78.4495   28.9122  -75.4416 C.3       11 UNK        -0.0857 
     47 S47       -78.1156   30.6872  -75.1720 S.3       11 UNK        -0.2512 
     48 C48       -78.8044   31.0030  -73.5060 C.3       11 UNK         0.0225 
     49 N         -77.2804   26.7854  -74.8378 N.am      5 UNK        -0.4615 
     50 C         -76.2768   26.1649  -74.2073 C.2       4 UNK         0.5053 
     51 O         -75.1423   26.6269  -74.1201 O.2       4 UNK        -0.5105 
     52 CA        -76.5658   24.7759  -73.6192 C.3       4 UNK         0.0263 
     53 CB        -77.2295   24.9016  -72.2400 C.3       4 UNK        -0.1981 
     54 N         -77.3874   23.9569  -74.5116 N.am      4 UNK        -0.4224 
     55 C         -76.9880   23.5719  -75.7336 C.2       3 UNK         0.4895 
     56 O         -75.8737   23.8271  -76.1940 O.2       3 UNK        -0.5091 
     57 CA        -78.0043   22.8252  -76.6163 C.3       3 UNK         0.0250 
     58 CB        -77.8210   21.3069  -76.4713 C.3       3 UNK        -0.1996 
     59 N         -79.4069   23.1760  -76.3614 N.am      3 UNK        -0.4254 
     60 C         -79.9241   24.4113  -76.4303 C.2       2 UNK         0.5004 
     61 O         -79.2613   25.4128  -76.7094 O.2       2 UNK        -0.5226 
     62 CA        -81.4136   24.5918  -76.0838 C.3       2 UNK         0.0269 
     63 CB        -82.1495   23.2907  -75.6871 C.3       2 UNK        -0.1926 
     64 N         -81.5697   25.6226  -75.0507 N.am      2 UNK        -0.4687 
     65 C         -81.0479   25.6120  -73.8131 C.2       1 UNK         0.5165 
     66 O         -80.4325   24.6488  -73.3540 O.2       1 UNK        -0.5079 
     67 H67       -84.1579   29.1068  -75.5387 H         1 UNK         0.0900 
     68 H68       -84.3275   29.9410  -73.9922 H         1 UNK         0.0900 
     69 H69       -82.8096   30.0398  -74.8861 H         1 UNK         0.0900 
     70 H70       -81.2382   28.7469  -74.0148 H         1 UNK         0.2959 
     71 H71       -80.1270   27.2443  -72.8935 H         1 UNK         0.1079 
     72 H72       -82.1876   27.5849  -71.1641 H         1 UNK         0.0837 
     73 H73       -82.4735   25.9160  -71.5262 H         1 UNK         0.0837 
     74 H74       -80.7511   28.4961  -69.5377 H         1 UNK         0.0685 
     75 H75       -79.4440   27.7076  -68.6991 H         1 UNK         0.0685 
     76 H76       -80.3156   29.6955  -71.6529 H         1 UNK         0.1434 
     77 H77       -76.2471   30.1500  -72.9475 H         1 UNK         0.1329 
     78 H78       -77.1976   27.4624  -69.7472 H         1 UNK         0.1335 
     79 H79       -74.7229   28.1956  -72.2392 H         1 UNK         0.0680 
     80 H80       -74.9977   27.4287  -70.6942 H         1 UNK         0.0680 
     81 H81       -72.5519   27.7593  -70.4844 H         1 UNK         0.1032 
     82 H82       -71.9328   29.1080  -69.5775 H         1 UNK         0.1032 
     83 H83       -71.5511   30.3769  -71.7084 H         1 UNK         0.0461 
     84 H84       -68.5751   27.8009  -72.4063 H         1 UNK         0.3453 
     85 H85       -70.0350   27.8056  -73.3643 H         1 UNK         0.3453 
     86 H86       -72.7797   28.0538  -72.9889 H         1 UNK         0.2984 
     87 H87       -73.7562   29.1842  -75.3574 H         1 UNK         0.0554 
     88 H88       -72.2159   30.4464  -76.8292 H         1 UNK         0.0847 
     89 H89       -72.6595   28.9258  -77.5840 H         1 UNK         0.0847 
     90 H90       -71.0727   29.1094  -76.8354 H         1 UNK         0.0847 
     91 H91       -73.6602   26.9835  -75.3554 H         1 UNK         0.3141 
     92 H92       -71.0481   24.5728  -75.6712 H         1 UNK         0.0743 
     93 H93       -73.3548   24.9102  -73.6948 H         1 UNK         0.0784 
     94 H94       -72.6174   23.3810  -74.1605 H         1 UNK         0.0784 
     95 H95       -71.6780   24.5917  -73.3033 H         1 UNK         0.0784 
     96 H96       -73.8887   24.4656  -76.2017 H         1 UNK         0.3213 
     97 H97       -73.3290   24.6748  -79.7800 H         1 UNK         0.0855 
     98 H98       -74.3192   22.5726  -77.7906 H         1 UNK         0.0814 
     99 H99       -73.0732   22.3754  -79.0079 H         1 UNK         0.0814 
    100 H100      -74.7369   22.6425  -79.5000 H         1 UNK         0.0814 
    101 H101      -75.5368   24.8723  -77.7743 H         1 UNK         0.3105 
    102 H102      -76.8567   27.7177  -79.5675 H         1 UNK         0.0547 
    103 H103      -78.8709   26.2828  -79.5863 H         1 UNK         0.0837 
    104 H104      -77.8946   24.8568  -79.2475 H         1 UNK         0.0837 
    105 H105      -77.7031   25.7148  -80.7688 H         1 UNK         0.0837 
    106 H106      -77.8294   26.3649  -77.2572 H         1 UNK         0.3020 
    107 H107      -76.3741   28.6430  -74.9233 H         1 UNK         0.1245 
    108 H108      -79.0917   28.5605  -74.6359 H         1 UNK         0.0781 
    109 H109      -79.0396   28.7895  -76.3523 H         1 UNK         0.0781 
    110 H110      -79.8927   30.9963  -73.5817 H         1 UNK         0.0836 
    111 H111      -78.5279   32.0130  -73.2009 H         1 UNK         0.0836 
    112 H112      -78.1533   26.2959  -74.9805 H         1 UNK         0.3022 
    113 H113      -75.6134   24.2598  -73.4874 H         1 UNK         0.0747 
    114 H114      -77.4661   23.9253  -71.8171 H         1 UNK         0.0793 
    115 H115      -76.5665   25.4077  -71.5375 H         1 UNK         0.0793 
    116 H116      -78.1512   25.4815  -72.2839 H         1 UNK         0.0793 
    117 H117      -78.3287   23.7425  -74.2082 H         1 UNK         0.3047 
    118 H118      -77.7854   23.0934  -77.6510 H         1 UNK         0.0822 
    119 H119      -78.4557   20.7611  -77.1696 H         1 UNK         0.0807 
    120 H120      -78.0577   20.9654  -75.4627 H         1 UNK         0.0807 
    121 H121      -76.7901   21.0168  -76.6804 H         1 UNK         0.0807 
    122 H122      -80.0208   22.4185  -76.0986 H         1 UNK         0.2946 
    123 H123      -81.8859   24.9787  -76.9883 H         1 UNK         0.1144 
    124 H124      -81.7176   22.8185  -74.8041 H         1 UNK         0.0793 
    125 H125      -82.1309   22.5623  -76.4988 H         1 UNK         0.0793 
    126 H126      -83.1985   23.4909  -75.4682 H         1 UNK         0.0793 
    127 H127      -82.0358   26.4691  -75.3441 H         1 UNK         0.2896 
@<TRIPOS>BOND
     1    1    2 1    
     2    1   67 1    
     3    1   68 1    
     4    1   69 1    
     5    2    3 2    
     6    2    4 am   BACKBONE|DICT|INTERRES
     7    4    5 1    
     8    4   70 1    
     9    5    6 1    
    10    5   65 1    
    11    5   71 1    
    12    6    7 1    
    13    6   72 1    
    14    6   73 1    
    15    7    8 1    
    16    8    9 1    
    17    8   74 1    
    18    8   75 1    
    19    9   10 ar   
    20    9   14 ar   
    21   10   11 ar   
    22   10   76 1    
    23   11   12 ar   
    24   11   48 1    
    25   12   13 ar   
    26   12   77 1    
    27   13   14 ar   
    28   13   15 1    
    29   14   78 1    
    30   15   16 1    
    31   15   79 1    
    32   15   80 1    
    33   16   17 1    
    34   17   18 1    
    35   17   81 1    
    36   17   82 1    
    37   18   19 1    
    38   18   22 1    
    39   18   83 1    
    40   19   20 am   BACKBONE|DICT|INTERRES
    41   19   21 2    
    42   20   84 1    
    43   20   85 1    
    44   22   23 am   BACKBONE|DICT|INTERRES
    45   22   86 1    
    46   23   24 2    
    47   23   25 1    
    48   25   26 1    
    49   25   27 1    
    50   25   87 1    
    51   26   88 1    
    52   26   89 1    
    53   26   90 1    
    54   27   28 am   BACKBONE|DICT|INTERRES
    55   27   91 1    
    56   28   29 2    
    57   28   30 1    
    58   30   31 1    
    59   30   32 1    
    60   30   92 1    
    61   31   93 1    
    62   31   94 1    
    63   31   95 1    
    64   32   33 am   BACKBONE|DICT|INTERRES
    65   32   96 1    
    66   33   34 2    
    67   33   35 1    
    68   35   36 1    
    69   35   37 1    
    70   35   97 1    
    71   36   98 1    
    72   36   99 1    
    73   36  100 1    
    74   37   38 am   BACKBONE|DICT|INTERRES
    75   37  101 1    
    76   38   39 2    
    77   38   40 1    
    78   40   41 1    
    79   40   42 1    
    80   40  102 1    
    81   41  103 1    
    82   41  104 1    
    83   41  105 1    
    84   42   43 am   BACKBONE|DICT|INTERRES
    85   42  106 1    
    86   43   44 2    
    87   43   45 1    
    88   45   46 1    
    89   45   49 1    
    90   45  107 1    
    91   46   47 1    
    92   46  108 1    
    93   46  109 1    
    94   47   48 1    
    95   48  110 1    
    96   48  111 1    
    97   49   50 am   BACKBONE|DICT|INTERRES
    98   49  112 1    
    99   50   51 2    
   100   50   52 1    
   101   52   53 1    
   102   52   54 1    
   103   52  113 1    
   104   53  114 1    
   105   53  115 1    
   106   53  116 1    
   107   54   55 am   BACKBONE|DICT|INTERRES
   108   54  117 1    
   109   55   56 2    
   110   55   57 1    
   111   57   58 1    
   112   57   59 1    
   113   57  118 1    
   114   58  119 1    
   115   58  120 1    
   116   58  121 1    
   117   59   60 am   BACKBONE|DICT|INTERRES
   118   59  122 1    
   119   60   61 2    
   120   60   62 1    
   121   62   63 1    
   122   62   64 1    
   123   62  123 1    
   124   63  124 1    
   125   63  125 1    
   126   63  126 1    
   127   64   65 am   BACKBONE|DICT|INTERRES
   128   64  127 1    
   129   65   66 2    
@<TRIPOS>SUBSTRUCTURE
     1 UNK         1 GROUP             0       ****    0 ROOT    
