@<TRIPOS>MOLECULE
3R135
127   129    1
SMALL
USER_CHARGES


@<TRIPOS>ATOM
      1 CA        -80.0650   21.7280  -72.5378 C.3       0 UNK        -0.1998 
      2 C         -80.6777   23.1112  -72.6928 C.2       0 UNK         0.4909 
      3 O         -81.5083   23.3197  -73.5773 O.2       0 UNK        -0.5240 
      4 N         -80.2588   24.0574  -71.8425 N.am      1 UNK        -0.4739 
      5 CA        -80.6948   25.4595  -71.7981 C.3       1 UNK         0.0864 
      6 C6        -80.0119   26.1920  -70.6122 C.3       11 UNK        -0.0881 
      7 S7        -81.0472   27.4534  -69.7919 S.3       11 UNK        -0.2682 
      8 C8        -81.0646   28.8667  -70.9539 C.3       11 UNK         0.0289 
      9 C9        -79.7080   29.4184  -71.3986 C.ar      11 UNK        -0.0687 
     10 C10       -79.6642   30.1841  -72.5682 C.ar      11 UNK        -0.0823 
     11 C11       -78.4541   30.6861  -73.0553 C.ar      11 UNK        -0.0830 
     12 C12       -77.2730   30.4192  -72.3600 C.ar      11 UNK        -0.1021 
     13 C13       -77.2961   29.6442  -71.1989 C.ar      11 UNK        -0.0753 
     14 C14       -78.5163   29.1801  -70.7002 C.ar      11 UNK        -0.0933 
     15 C15       -75.9888   29.2474  -70.5380 C.3       11 UNK         0.0166 
     16 S16       -75.2910   27.8067  -71.4038 S.3       11 UNK        -0.2615 
     17 C17       -73.5432   27.8790  -70.8901 C.3       11 UNK        -0.0865 
     18 CA        -72.7062   28.9295  -71.6715 C.3       10 UNK         0.0862 
     19 C         -71.2161   28.8943  -71.2178 C.2       10 UNK         0.5551 
     20 N         -70.2544   28.5934  -72.0836 N.am      10 UNK        -0.7319 
     21 O         -70.9284   29.1499  -70.0511 O.2       10 UNK        -0.5018 
     22 N         -72.9047   28.8354  -73.1267 N.am      10 UNK        -0.4509 
     23 C         -72.6243   29.8119  -73.9997 C.2       10 UNK         0.4899 
     24 O         -72.2600   30.9403  -73.6649 O.2       10 UNK        -0.4839 
     25 CA        -72.7690   29.4661  -75.4971 C.3       9 UNK         0.0222 
     26 CB        -71.8911   30.3594  -76.3988 C.3       9 UNK        -0.1966 
     27 N         -72.5466   28.0434  -75.8111 N.am      9 UNK        -0.4218 
     28 C         -71.4425   27.3306  -75.5340 C.2       9 UNK         0.5020 
     29 O         -70.4563   27.8056  -74.9673 O.2       9 UNK        -0.5274 
     30 CA        -71.4173   25.8383  -75.8968 C.3       8 UNK         0.0270 
     31 CB        -71.3399   24.9848  -74.6170 C.3       8 UNK        -0.1976 
     32 N         -72.5727   25.3861  -76.6798 N.am      8 UNK        -0.4313 
     33 C         -72.4769   24.7062  -77.8305 C.2       8 UNK         0.5041 
     34 O         -71.4276   24.5669  -78.4616 O.2       8 UNK        -0.5577 
     35 CA        -73.7455   24.0048  -78.3415 C.3       7 UNK         0.0284 
     36 CB        -74.0547   22.7667  -77.4833 C.3       7 UNK        -0.1958 
     37 N         -74.9214   24.8727  -78.3960 N.am      7 UNK        -0.4454 
     38 C         -75.1241   25.8077  -79.3340 C.2       7 UNK         0.5089 
     39 O         -74.3217   26.0648  -80.2323 O.2       7 UNK        -0.5125 
     40 CA        -76.4522   26.5855  -79.2680 C.3       6 UNK         0.0408 
     41 CB        -77.5921   25.7734  -79.9026 C.3       6 UNK        -0.1791 
     42 N         -76.8274   26.9788  -77.9084 N.am      6 UNK        -0.4762 
     43 C         -76.1130   27.8166  -77.1429 C.2       6 UNK         0.5007 
     44 O         -75.0718   28.3566  -77.5132 O.2       6 UNK        -0.5032 
     45 CA        -76.6207   28.0423  -75.7048 C.3       5 UNK         0.0783 
     46 C46       -77.8355   29.0056  -75.6857 C.3       11 UNK        -0.0857 
     47 S47       -77.2969   30.7491  -75.6047 S.3       11 UNK        -0.2512 
     48 C48       -78.4239   31.4700  -74.3616 C.3       11 UNK         0.0225 
     49 N         -76.8997   26.7726  -75.0303 N.am      5 UNK        -0.4615 
     50 C         -76.0076   25.7919  -74.8307 C.2       4 UNK         0.5053 
     51 O         -74.8104   25.8872  -75.1012 O.2       4 UNK        -0.5105 
     52 CA        -76.5564   24.4520  -74.3161 C.3       4 UNK         0.0263 
     53 CB        -76.6301   24.4320  -72.7811 C.3       4 UNK        -0.1981 
     54 N         -77.8683   24.1516  -74.8987 N.am      4 UNK        -0.4224 
     55 C         -78.0551   23.8178  -76.1856 C.2       3 UNK         0.4895 
     56 O         -77.1338   23.6442  -76.9813 O.2       3 UNK        -0.5091 
     57 CA        -79.5033   23.7051  -76.6911 C.3       3 UNK         0.0250 
     58 CB        -80.0291   22.2694  -76.5440 C.3       3 UNK        -0.1996 
     59 N         -80.4060   24.6452  -76.0224 N.am      3 UNK        -0.4254 
     60 C         -80.3962   25.9684  -76.2476 C.2       2 UNK         0.5004 
     61 O         -79.6707   26.5089  -77.0830 O.2       2 UNK        -0.5226 
     62 CA        -81.2995   26.8430  -75.3551 C.3       2 UNK         0.0269 
     63 CB        -82.6900   27.0054  -75.9873 C.3       2 UNK        -0.1926 
     64 N         -81.4394   26.3332  -73.9851 N.am      2 UNK        -0.4687 
     65 C         -80.4106   26.1620  -73.1436 C.2       1 UNK         0.5165 
     66 O         -79.2543   26.4673  -73.4348 O.2       1 UNK        -0.5079 
     67 H67       -79.6862   21.5675  -71.5285 H         1 UNK         0.0900 
     68 H68       -80.8101   20.9593  -72.7417 H         1 UNK         0.0900 
     69 H69       -79.2393   21.5989  -73.2367 H         1 UNK         0.0900 
     70 H70       -79.5635   23.8072  -71.1541 H         1 UNK         0.2959 
     71 H71       -81.7740   25.4483  -71.6310 H         1 UNK         0.1079 
     72 H72       -79.0366   26.5950  -70.8856 H         1 UNK         0.0837 
     73 H73       -79.7884   25.4741  -69.8213 H         1 UNK         0.0837 
     74 H74       -81.6224   29.6787  -70.4858 H         1 UNK         0.0685 
     75 H75       -81.6420   28.5712  -71.8310 H         1 UNK         0.0685 
     76 H76       -80.5785   30.3726  -73.1144 H         1 UNK         0.1434 
     77 H77       -76.3279   30.7707  -72.7515 H         1 UNK         0.1329 
     78 H78       -78.5216   28.5919  -69.7940 H         1 UNK         0.1335 
     79 H79       -76.1385   29.0062  -69.4845 H         1 UNK         0.0680 
     80 H80       -75.2922   30.0857  -70.5741 H         1 UNK         0.0680 
     81 H81       -73.1193   26.8827  -71.0296 H         1 UNK         0.1032 
     82 H82       -73.5017   28.0750  -69.8168 H         1 UNK         0.1032 
     83 H83       -73.0724   29.9127  -71.3715 H         1 UNK         0.0461 
     84 H84       -70.4653   28.3867  -73.0545 H         1 UNK         0.3453 
     85 H85       -69.2978   28.5797  -71.7684 H         1 UNK         0.3453 
     86 H86       -73.2127   27.9408  -73.4780 H         1 UNK         0.2984 
     87 H87       -73.8072   29.6861  -75.7406 H         1 UNK         0.0554 
     88 H88       -72.1416   31.4133  -76.2725 H         1 UNK         0.0847 
     89 H89       -72.0360   30.1197  -77.4522 H         1 UNK         0.0847 
     90 H90       -70.8307   30.2472  -76.1705 H         1 UNK         0.0847 
     91 H91       -73.3129   27.5823  -76.2860 H         1 UNK         0.3141 
     92 H92       -70.4930   25.6857  -76.4575 H         1 UNK         0.0743 
     93 H93       -70.4798   25.2629  -74.0062 H         1 UNK         0.0784 
     94 H94       -72.2316   25.1039  -73.9999 H         1 UNK         0.0784 
     95 H95       -71.2364   23.9258  -74.8539 H         1 UNK         0.0784 
     96 H96       -73.4793   25.4623  -76.2174 H         1 UNK         0.3213 
     97 H97       -73.5393   23.6561  -79.3561 H         1 UNK         0.0855 
     98 H98       -74.3121   23.0372  -76.4589 H         1 UNK         0.0814 
     99 H99       -73.1949   22.0968  -77.4383 H         1 UNK         0.0814 
    100 H100      -74.8872   22.1969  -77.8966 H         1 UNK         0.0814 
    101 H101      -75.6708   24.6713  -77.7393 H         1 UNK         0.3105 
    102 H102      -76.3283   27.5009  -79.8503 H         1 UNK         0.0547 
    103 H103      -78.5256   26.3363  -79.9089 H         1 UNK         0.0837 
    104 H104      -77.3592   25.5188  -80.9373 H         1 UNK         0.0837 
    105 H105      -77.7691   24.8389  -79.3702 H         1 UNK         0.0837 
    106 H106      -77.7022   26.6121  -77.5441 H         1 UNK         0.3020 
    107 H107      -75.8069   28.4950  -75.1347 H         1 UNK         0.1245 
    108 H108      -78.4662   28.7822  -74.8261 H         1 UNK         0.0781 
    109 H109      -78.4844   28.8753  -76.5537 H         1 UNK         0.0781 
    110 H110      -79.4217   31.5362  -74.7980 H         1 UNK         0.0836 
    111 H111      -78.1118   32.4942  -74.1534 H         1 UNK         0.0836 
    112 H112      -77.8440   26.6391  -74.6789 H         1 UNK         0.3022 
    113 H113      -75.8619   23.6684  -74.6255 H         1 UNK         0.0747 
    114 H114      -77.0103   23.4793  -72.4128 H         1 UNK         0.0793 
    115 H115      -75.6393   24.5752  -72.3479 H         1 UNK         0.0793 
    116 H116      -77.2653   25.2250  -72.3878 H         1 UNK         0.0793 
    117 H117      -78.6753   24.3613  -74.3296 H         1 UNK         0.3047 
    118 H118      -79.4956   23.9457  -77.7565 H         1 UNK         0.0822 
    119 H119      -79.3893   21.5652  -77.0779 H         1 UNK         0.0807 
    120 H120      -81.0330   22.1714  -76.9574 H         1 UNK         0.0807 
    121 H121      -80.0643   21.9507  -75.5035 H         1 UNK         0.0807 
    122 H122      -81.0060   24.2724  -75.2918 H         1 UNK         0.2946 
    123 H123      -80.8333   27.8291  -75.2950 H         1 UNK         0.1144 
    124 H124      -83.3076   27.6984  -75.4157 H         1 UNK         0.0793 
    125 H125      -83.2197   26.0539  -76.0490 H         1 UNK         0.0793 
    126 H126      -82.6133   27.4026  -77.0006 H         1 UNK         0.0793 
    127 H127      -82.3553   26.0055  -73.7121 H         1 UNK         0.2896 
@<TRIPOS>BOND
     1    1    2 1    
     2    1   67 1    
     3    1   68 1    
     4    1   69 1    
     5    2    3 2    
     6    2    4 am   BACKBONE|DICT|INTERRES
     7    4    5 1    
     8    4   70 1    
     9    5    6 1    
    10    5   65 1    
    11    5   71 1    
    12    6    7 1    
    13    6   72 1    
    14    6   73 1    
    15    7    8 1    
    16    8    9 1    
    17    8   74 1    
    18    8   75 1    
    19    9   10 ar   
    20    9   14 ar   
    21   10   11 ar   
    22   10   76 1    
    23   11   12 ar   
    24   11   48 1    
    25   12   13 ar   
    26   12   77 1    
    27   13   14 ar   
    28   13   15 1    
    29   14   78 1    
    30   15   16 1    
    31   15   79 1    
    32   15   80 1    
    33   16   17 1    
    34   17   18 1    
    35   17   81 1    
    36   17   82 1    
    37   18   19 1    
    38   18   22 1    
    39   18   83 1    
    40   19   20 am   BACKBONE|DICT|INTERRES
    41   19   21 2    
    42   20   84 1    
    43   20   85 1    
    44   22   23 am   BACKBONE|DICT|INTERRES
    45   22   86 1    
    46   23   24 2    
    47   23   25 1    
    48   25   26 1    
    49   25   27 1    
    50   25   87 1    
    51   26   88 1    
    52   26   89 1    
    53   26   90 1    
    54   27   28 am   BACKBONE|DICT|INTERRES
    55   27   91 1    
    56   28   29 2    
    57   28   30 1    
    58   30   31 1    
    59   30   32 1    
    60   30   92 1    
    61   31   93 1    
    62   31   94 1    
    63   31   95 1    
    64   32   33 am   BACKBONE|DICT|INTERRES
    65   32   96 1    
    66   33   34 2    
    67   33   35 1    
    68   35   36 1    
    69   35   37 1    
    70   35   97 1    
    71   36   98 1    
    72   36   99 1    
    73   36  100 1    
    74   37   38 am   BACKBONE|DICT|INTERRES
    75   37  101 1    
    76   38   39 2    
    77   38   40 1    
    78   40   41 1    
    79   40   42 1    
    80   40  102 1    
    81   41  103 1    
    82   41  104 1    
    83   41  105 1    
    84   42   43 am   BACKBONE|DICT|INTERRES
    85   42  106 1    
    86   43   44 2    
    87   43   45 1    
    88   45   46 1    
    89   45   49 1    
    90   45  107 1    
    91   46   47 1    
    92   46  108 1    
    93   46  109 1    
    94   47   48 1    
    95   48  110 1    
    96   48  111 1    
    97   49   50 am   BACKBONE|DICT|INTERRES
    98   49  112 1    
    99   50   51 2    
   100   50   52 1    
   101   52   53 1    
   102   52   54 1    
   103   52  113 1    
   104   53  114 1    
   105   53  115 1    
   106   53  116 1    
   107   54   55 am   BACKBONE|DICT|INTERRES
   108   54  117 1    
   109   55   56 2    
   110   55   57 1    
   111   57   58 1    
   112   57   59 1    
   113   57  118 1    
   114   58  119 1    
   115   58  120 1    
   116   58  121 1    
   117   59   60 am   BACKBONE|DICT|INTERRES
   118   59  122 1    
   119   60   61 2    
   120   60   62 1    
   121   62   63 1    
   122   62   64 1    
   123   62  123 1    
   124   63  124 1    
   125   63  125 1    
   126   63  126 1    
   127   64   65 am   BACKBONE|DICT|INTERRES
   128   64  127 1    
   129   65   66 2    
@<TRIPOS>SUBSTRUCTURE
     1 UNK         1 GROUP             0       ****    0 ROOT    
