@<TRIPOS>MOLECULE
3R135
127   129    1
SMALL
USER_CHARGES


@<TRIPOS>ATOM
      1 CA        -84.5029   25.5329  -70.3961 C.3       0 UNK        -0.1998 
      2 C         -83.0573   25.3171  -70.8186 C.2       0 UNK         0.4909 
      3 O         -82.4549   24.3165  -70.4293 O.2       0 UNK        -0.5240 
      4 N         -82.5084   26.2500  -71.6113 N.am      1 UNK        -0.4739 
      5 CA        -81.1343   26.2557  -72.1411 C.3       1 UNK         0.0864 
      6 C6        -80.0393   26.4248  -71.0491 C.3       11 UNK        -0.0881 
      7 S7        -80.3067   27.8918  -69.9916 S.3       11 UNK        -0.2682 
      8 C8        -78.7319   28.8044  -70.1725 C.3       11 UNK         0.0289 
      9 C9        -78.5200   29.5539  -71.4916 C.ar      11 UNK        -0.0687 
     10 C10       -79.5047   29.6572  -72.4838 C.ar      11 UNK        -0.0823 
     11 C11       -79.2556   30.3476  -73.6731 C.ar      11 UNK        -0.0830 
     12 C12       -78.0235   30.9805  -73.8541 C.ar      11 UNK        -0.1021 
     13 C13       -77.0337   30.8972  -72.8730 C.ar      11 UNK        -0.0753 
     14 C14       -77.2870   30.1814  -71.6993 C.ar      11 UNK        -0.0933 
     15 C15       -75.6949   31.5833  -73.0915 C.3       11 UNK         0.0166 
     16 S16       -74.5746   30.5342  -74.0655 S.3       11 UNK        -0.2615 
     17 C17       -73.9570   29.3667  -72.8024 C.3       11 UNK        -0.0865 
     18 CA        -72.4083   29.2902  -72.7754 C.3       10 UNK         0.0862 
     19 C         -71.9140   28.3861  -71.6061 C.2       10 UNK         0.5551 
     20 N         -71.1936   27.2965  -71.8499 N.am      10 UNK        -0.7319 
     21 O         -72.1876   28.6874  -70.4470 O.2       10 UNK        -0.5018 
     22 N         -71.8738   28.9238  -74.0939 N.am      10 UNK        -0.4509 
     23 C         -70.6214   29.1347  -74.5148 C.2       10 UNK         0.4899 
     24 O         -69.7759   29.7568  -73.8697 O.2       10 UNK        -0.4839 
     25 CA        -70.2615   28.5291  -75.8875 C.3       9 UNK         0.0222 
     26 CB        -68.7423   28.3310  -76.0748 C.3       9 UNK        -0.1966 
     27 N         -70.9921   27.2848  -76.1760 N.am      9 UNK        -0.4218 
     28 C         -70.9686   26.1488  -75.4567 C.2       9 UNK         0.5020 
     29 O         -70.2828   26.0076  -74.4426 O.2       9 UNK        -0.5274 
     30 CA        -71.8899   24.9921  -75.8928 C.3       8 UNK         0.0270 
     31 CB        -72.6316   24.3881  -74.6874 C.3       8 UNK        -0.1976 
     32 N         -72.8724   25.3962  -76.9032 N.am      8 UNK        -0.4313 
     33 C         -72.6885   25.2974  -78.2264 C.2       8 UNK         0.5041 
     34 O         -71.6874   24.7992  -78.7423 O.2       8 UNK        -0.5577 
     35 CA        -73.7841   25.8828  -79.1354 C.3       7 UNK         0.0284 
     36 CB        -74.7712   24.7891  -79.5705 C.3       7 UNK        -0.1958 
     37 N         -74.5305   27.0013  -78.5493 N.am      7 UNK        -0.4454 
     38 C         -74.0166   28.1816  -78.1841 C.2       7 UNK         0.5089 
     39 O         -72.8117   28.4318  -78.2120 O.2       7 UNK        -0.5125 
     40 CA        -74.9949   29.2652  -77.6939 C.3       6 UNK         0.0408 
     41 CB        -75.6660   29.9814  -78.8808 C.3       6 UNK        -0.1791 
     42 N         -75.9889   28.8129  -76.7102 N.am      6 UNK        -0.4762 
     43 C         -76.9942   27.9373  -76.8608 C.2       6 UNK         0.5007 
     44 O         -77.2215   27.3171  -77.9022 O.2       6 UNK        -0.5032 
     45 CA        -77.8774   27.6871  -75.6210 C.3       5 UNK         0.0783 
     46 C46       -79.3795   27.9631  -75.8915 C.3       11 UNK        -0.0857 
     47 S47       -79.7348   29.7001  -76.3379 S.3       11 UNK        -0.2512 
     48 C48       -80.3181   30.4086  -74.7622 C.3       11 UNK         0.0225 
     49 N         -77.6657   26.3269  -75.1223 N.am      5 UNK        -0.4615 
     50 C         -76.5164   25.8829  -74.5907 C.2       4 UNK         0.5053 
     51 O         -75.5125   26.5829  -74.4628 O.2       4 UNK        -0.5105 
     52 CA        -76.4562   24.4215  -74.1167 C.3       4 UNK         0.0263 
     53 CB        -76.5249   24.3447  -72.5832 C.3       4 UNK        -0.1981 
     54 N         -77.5010   23.5844  -74.7109 N.am      4 UNK        -0.4224 
     55 C         -77.4074   23.0561  -75.9416 C.2       3 UNK         0.4895 
     56 O         -76.4116   23.1794  -76.6546 O.2       3 UNK        -0.5091 
     57 CA        -78.6028   22.2508  -76.4867 C.3       3 UNK         0.0250 
     58 CB        -78.2965   20.7444  -76.4463 C.3       3 UNK        -0.1996 
     59 N         -79.8730   22.4958  -75.7996 N.am      3 UNK        -0.4254 
     60 C         -80.5384   23.6582  -75.7936 C.2       2 UNK         0.5004 
     61 O         -80.1404   24.6738  -76.3661 O.2       2 UNK        -0.5226 
     62 CA        -81.8454   23.7232  -74.9769 C.3       2 UNK         0.0269 
     63 CB        -82.2253   22.3989  -74.2745 C.3       2 UNK        -0.1926 
     64 N         -81.8234   24.8160  -73.9968 N.am      2 UNK        -0.4687 
     65 C         -80.8802   25.0478  -73.0690 C.2       1 UNK         0.5165 
     66 O         -79.8694   24.3551  -72.9322 O.2       1 UNK        -0.5079 
     67 H67       -84.9156   26.4549  -70.8053 H         1 UNK         0.0900 
     68 H68       -85.1214   24.7034  -70.7380 H         1 UNK         0.0900 
     69 H69       -84.5716   25.5844  -69.3098 H         1 UNK         0.0900 
     70 H70       -83.0716   27.0455  -71.8784 H         1 UNK         0.2959 
     71 H71       -81.0729   27.1208  -72.7995 H         1 UNK         0.1079 
     72 H72       -79.0561   26.5022  -71.5166 H         1 UNK         0.0837 
     73 H73       -79.9989   25.5442  -70.4057 H         1 UNK         0.0837 
     74 H74       -78.6774   29.5309  -69.3606 H         1 UNK         0.0685 
     75 H75       -77.9059   28.1091  -70.0149 H         1 UNK         0.0685 
     76 H76       -80.4752   29.2110  -72.3374 H         1 UNK         0.1434 
     77 H77       -77.8288   31.5242  -74.7689 H         1 UNK         0.1329 
     78 H78       -76.5228   30.1185  -70.9369 H         1 UNK         0.1335 
     79 H79       -75.8488   32.5212  -73.6273 H         1 UNK         0.0680 
     80 H80       -75.2312   31.8515  -72.1409 H         1 UNK         0.0680 
     81 H81       -74.3867   28.3835  -72.9968 H         1 UNK         0.1032 
     82 H82       -74.3310   29.6651  -71.8222 H         1 UNK         0.1032 
     83 H83       -72.0396   30.2921  -72.5469 H         1 UNK         0.0461 
     84 H84       -70.9378   27.0321  -72.7943 H         1 UNK         0.3453 
     85 H85       -70.8837   26.7328  -71.0749 H         1 UNK         0.3453 
     86 H86       -72.5015   28.4109  -74.6935 H         1 UNK         0.2984 
     87 H87       -70.5928   29.2540  -76.6322 H         1 UNK         0.0554 
     88 H88       -68.2111   29.2805  -75.9981 H         1 UNK         0.0847 
     89 H89       -68.5145   27.9130  -77.0552 H         1 UNK         0.0847 
     90 H90       -68.3242   27.6641  -75.3200 H         1 UNK         0.0847 
     91 H91       -71.6063   27.3340  -76.9832 H         1 UNK         0.3141 
     92 H92       -71.2427   24.2142  -76.3031 H         1 UNK         0.0743 
     93 H93       -73.2541   25.1278  -74.1834 H         1 UNK         0.0784 
     94 H94       -73.2648   23.5554  -74.9933 H         1 UNK         0.0784 
     95 H95       -71.9306   23.9981  -73.9482 H         1 UNK         0.0784 
     96 H96       -73.7258   25.8214  -76.5672 H         1 UNK         0.3213 
     97 H97       -73.2849   26.2626  -80.0294 H         1 UNK         0.0855 
     98 H98       -75.3443   24.4071  -78.7260 H         1 UNK         0.0814 
     99 H99       -74.2479   23.9438  -80.0198 H         1 UNK         0.0814 
    100 H100      -75.4773   25.1634  -80.3118 H         1 UNK         0.0814 
    101 H101      -75.5411   26.8994  -78.4680 H         1 UNK         0.3105 
    102 H102      -74.3914   30.0086  -77.1707 H         1 UNK         0.0547 
    103 H103      -74.9179   30.3983  -79.5563 H         1 UNK         0.0837 
    104 H104      -76.2908   29.3074  -79.4675 H         1 UNK         0.0837 
    105 H105      -76.2917   30.8070  -78.5418 H         1 UNK         0.0837 
    106 H106      -75.8555   29.2084  -75.7873 H         1 UNK         0.3020 
    107 H107      -77.5542   28.3625  -74.8263 H         1 UNK         0.1245 
    108 H108      -79.9726   27.6968  -75.0160 H         1 UNK         0.0781 
    109 H109      -79.7434   27.3266  -76.7001 H         1 UNK         0.0781 
    110 H110      -81.2289   29.8918  -74.4559 H         1 UNK         0.0836 
    111 H111      -80.5975   31.4503  -74.9258 H         1 UNK         0.0836 
    112 H112      -78.4214   25.6709  -75.2748 H         1 UNK         0.3022 
    113 H113      -75.4865   24.0239  -74.4166 H         1 UNK         0.0747 
    114 H114      -76.4730   23.3137  -72.2334 H         1 UNK         0.0793 
    115 H115      -75.6894   24.8821  -72.1321 H         1 UNK         0.0793 
    116 H116      -77.4395   24.7874  -72.1917 H         1 UNK         0.0793 
    117 H117      -78.3599   23.4813  -74.1808 H         1 UNK         0.3047 
    118 H118      -78.7321   22.5447  -77.5306 H         1 UNK         0.0822 
    119 H119      -79.0896   20.1638  -76.9178 H         1 UNK         0.0807 
    120 H120      -78.1765   20.3842  -75.4237 H         1 UNK         0.0807 
    121 H121      -77.3726   20.5187  -76.9811 H         1 UNK         0.0807 
    122 H122      -80.2603   21.7231  -75.2774 H         1 UNK         0.2946 
    123 H123      -82.6334   23.9579  -75.6946 H         1 UNK         0.1144 
    124 H124      -82.3434   21.5852  -74.9915 H         1 UNK         0.0793 
    125 H125      -83.1771   22.4968  -73.7519 H         1 UNK         0.0793 
    126 H126      -81.4811   22.0953  -73.5369 H         1 UNK         0.0793 
    127 H127      -82.6086   25.4508  -74.0365 H         1 UNK         0.2896 
@<TRIPOS>BOND
     1    1    2 1    
     2    1   67 1    
     3    1   68 1    
     4    1   69 1    
     5    2    3 2    
     6    2    4 am   BACKBONE|DICT|INTERRES
     7    4    5 1    
     8    4   70 1    
     9    5    6 1    
    10    5   65 1    
    11    5   71 1    
    12    6    7 1    
    13    6   72 1    
    14    6   73 1    
    15    7    8 1    
    16    8    9 1    
    17    8   74 1    
    18    8   75 1    
    19    9   10 ar   
    20    9   14 ar   
    21   10   11 ar   
    22   10   76 1    
    23   11   12 ar   
    24   11   48 1    
    25   12   13 ar   
    26   12   77 1    
    27   13   14 ar   
    28   13   15 1    
    29   14   78 1    
    30   15   16 1    
    31   15   79 1    
    32   15   80 1    
    33   16   17 1    
    34   17   18 1    
    35   17   81 1    
    36   17   82 1    
    37   18   19 1    
    38   18   22 1    
    39   18   83 1    
    40   19   20 am   BACKBONE|DICT|INTERRES
    41   19   21 2    
    42   20   84 1    
    43   20   85 1    
    44   22   23 am   BACKBONE|DICT|INTERRES
    45   22   86 1    
    46   23   24 2    
    47   23   25 1    
    48   25   26 1    
    49   25   27 1    
    50   25   87 1    
    51   26   88 1    
    52   26   89 1    
    53   26   90 1    
    54   27   28 am   BACKBONE|DICT|INTERRES
    55   27   91 1    
    56   28   29 2    
    57   28   30 1    
    58   30   31 1    
    59   30   32 1    
    60   30   92 1    
    61   31   93 1    
    62   31   94 1    
    63   31   95 1    
    64   32   33 am   BACKBONE|DICT|INTERRES
    65   32   96 1    
    66   33   34 2    
    67   33   35 1    
    68   35   36 1    
    69   35   37 1    
    70   35   97 1    
    71   36   98 1    
    72   36   99 1    
    73   36  100 1    
    74   37   38 am   BACKBONE|DICT|INTERRES
    75   37  101 1    
    76   38   39 2    
    77   38   40 1    
    78   40   41 1    
    79   40   42 1    
    80   40  102 1    
    81   41  103 1    
    82   41  104 1    
    83   41  105 1    
    84   42   43 am   BACKBONE|DICT|INTERRES
    85   42  106 1    
    86   43   44 2    
    87   43   45 1    
    88   45   46 1    
    89   45   49 1    
    90   45  107 1    
    91   46   47 1    
    92   46  108 1    
    93   46  109 1    
    94   47   48 1    
    95   48  110 1    
    96   48  111 1    
    97   49   50 am   BACKBONE|DICT|INTERRES
    98   49  112 1    
    99   50   51 2    
   100   50   52 1    
   101   52   53 1    
   102   52   54 1    
   103   52  113 1    
   104   53  114 1    
   105   53  115 1    
   106   53  116 1    
   107   54   55 am   BACKBONE|DICT|INTERRES
   108   54  117 1    
   109   55   56 2    
   110   55   57 1    
   111   57   58 1    
   112   57   59 1    
   113   57  118 1    
   114   58  119 1    
   115   58  120 1    
   116   58  121 1    
   117   59   60 am   BACKBONE|DICT|INTERRES
   118   59  122 1    
   119   60   61 2    
   120   60   62 1    
   121   62   63 1    
   122   62   64 1    
   123   62  123 1    
   124   63  124 1    
   125   63  125 1    
   126   63  126 1    
   127   64   65 am   BACKBONE|DICT|INTERRES
   128   64  127 1    
   129   65   66 2    
@<TRIPOS>SUBSTRUCTURE
     1 UNK         1 GROUP             0       ****    0 ROOT    
