@<TRIPOS>MOLECULE
3R135
127   129    1
SMALL
USER_CHARGES


@<TRIPOS>ATOM
      1 CA        -85.7706   26.4620  -74.2567 C.3       0 UNK        -0.1998 
      2 C         -84.6886   27.2973  -74.9243 C.2       0 UNK         0.4909 
      3 O         -84.9447   27.9186  -75.9559 O.2       0 UNK        -0.5240 
      4 N         -83.4805   27.3171  -74.3436 N.am      1 UNK        -0.4739 
      5 CA        -82.3172   28.0545  -74.8592 C.3       1 UNK         0.0864 
      6 C6        -81.2384   28.2390  -73.7569 C.3       11 UNK        -0.0881 
      7 S7        -80.2830   29.7815  -73.9735 S.3       11 UNK        -0.2682 
      8 C8        -80.0625   30.3498  -72.2570 C.3       11 UNK         0.0289 
      9 C9        -78.7882   29.8036  -71.6244 C.ar      11 UNK        -0.0687 
     10 C10       -78.7211   28.4778  -71.1835 C.ar      11 UNK        -0.0823 
     11 C11       -77.5674   27.9943  -70.5566 C.ar      11 UNK        -0.0830 
     12 C12       -76.4798   28.8503  -70.3599 C.ar      11 UNK        -0.1021 
     13 C13       -76.5324   30.1759  -70.7995 C.ar      11 UNK        -0.0753 
     14 C14       -77.6850   30.6432  -71.4387 C.ar      11 UNK        -0.0933 
     15 C15       -75.3638   31.1185  -70.5498 C.3       11 UNK         0.0166 
     16 S16       -74.1672   31.0991  -71.9189 S.3       11 UNK        -0.2615 
     17 C17       -73.2406   29.5678  -71.5615 C.3       11 UNK        -0.0865 
     18 CA        -71.9453   29.4587  -72.4052 C.3       10 UNK         0.0862 
     19 C         -71.1039   28.2347  -71.9677 C.2       10 UNK         0.5551 
     20 N         -69.9408   28.4591  -71.3723 N.am      10 UNK        -0.7319 
     21 O         -71.5142   27.0866  -72.1249 O.2       10 UNK        -0.5018 
     22 N         -72.2609   29.3441  -73.8303 N.am      10 UNK        -0.4509 
     23 C         -71.7251   30.0706  -74.8151 C.2       10 UNK         0.4899 
     24 O         -70.8910   30.9614  -74.6415 O.2       10 UNK        -0.4839 
     25 CA        -72.2179   29.7336  -76.2357 C.3       9 UNK         0.0222 
     26 CB        -71.4783   30.5147  -77.3430 C.3       9 UNK        -0.1966 
     27 N         -72.2005   28.2910  -76.5026 N.am      9 UNK        -0.4218 
     28 C         -71.1349   27.4739  -76.5044 C.2       9 UNK         0.5020 
     29 O         -69.9758   27.8580  -76.3401 O.2       9 UNK        -0.5274 
     30 CA        -71.3850   25.9657  -76.7046 C.3       8 UNK         0.0270 
     31 CB        -71.0366   25.1975  -75.4182 C.3       8 UNK        -0.1976 
     32 N         -72.7576   25.6334  -77.0973 N.am      8 UNK        -0.4313 
     33 C         -73.2843   25.8313  -78.3133 C.2       8 UNK         0.5041 
     34 O         -72.6452   26.2606  -79.2744 O.2       8 UNK        -0.5577 
     35 CA        -74.7889   25.5428  -78.4724 C.3       7 UNK         0.0284 
     36 CB        -75.0349   24.0501  -78.7412 C.3       7 UNK        -0.1958 
     37 N         -75.5820   25.9742  -77.3160 N.am      7 UNK        -0.4454 
     38 C         -75.6964   27.2441  -76.8985 C.2       7 UNK         0.5089 
     39 O         -75.1640   28.2022  -77.4576 O.2       7 UNK        -0.5125 
     40 CA        -76.4905   27.4768  -75.6056 C.3       6 UNK         0.0408 
     41 CB        -77.9997   27.4816  -75.8780 C.3       6 UNK        -0.1791 
     42 N         -76.1697   26.4722  -74.5922 N.am      6 UNK        -0.4762 
     43 C         -75.0067   26.4273  -73.9284 C.2       6 UNK         0.5007 
     44 O         -74.1087   27.2525  -74.0880 O.2       6 UNK        -0.5032 
     45 CA        -74.7841   25.2389  -72.9698 C.3       5 UNK         0.0783 
     46 C46       -75.3231   25.5304  -71.5454 C.3       11 UNK        -0.0857 
     47 S47       -77.1408   25.3849  -71.3966 S.3       11 UNK        -0.2512 
     48 C48       -77.5150   26.5579  -70.0578 C.3       11 UNK         0.0225 
     49 N         -75.3052   23.9771  -73.5071 N.am      5 UNK        -0.4615 
     50 C         -74.8652   23.3709  -74.6166 C.2       4 UNK         0.5053 
     51 O         -73.9168   23.7767  -75.2842 O.2       4 UNK        -0.5105 
     52 CA        -75.6465   22.1335  -75.0944 C.3       4 UNK         0.0263 
     53 CB        -75.0969   20.8627  -74.4279 C.3       4 UNK        -0.1981 
     54 N         -77.0957   22.2179  -74.8735 N.am      4 UNK        -0.4224 
     55 C         -77.8912   23.1916  -75.3392 C.2       3 UNK         0.4895 
     56 O         -77.4797   24.1464  -76.0030 O.2       3 UNK        -0.5091 
     57 CA        -79.3778   23.0956  -74.9509 C.3       3 UNK         0.0250 
     58 CB        -79.5654   23.2661  -73.4330 C.3       3 UNK        -0.1996 
     59 N         -80.1930   24.1083  -75.6217 N.am      3 UNK        -0.4254 
     60 C         -80.5820   24.0794  -76.9034 C.2       2 UNK         0.5004 
     61 O         -80.3298   23.1494  -77.6713 O.2       2 UNK        -0.5226 
     62 CA        -81.4131   25.2774  -77.4032 C.3       2 UNK         0.0269 
     63 CB        -82.6060   24.8244  -78.2655 C.3       2 UNK        -0.1926 
     64 N         -81.9169   26.0914  -76.2899 N.am      2 UNK        -0.4687 
     65 C         -81.7253   27.4093  -76.1356 C.2       1 UNK         0.5165 
     66 O         -81.1191   28.1078  -76.9482 O.2       1 UNK        -0.5079 
     67 H67       -85.4092   25.9715  -73.3531 H         1 UNK         0.0900 
     68 H68       -86.6164   27.0928  -73.9844 H         1 UNK         0.0900 
     69 H69       -86.1260   25.6924  -74.9413 H         1 UNK         0.0900 
     70 H70       -83.3347   26.7971  -73.4896 H         1 UNK         0.2959 
     71 H71       -82.6807   29.0427  -75.1519 H         1 UNK         0.1079 
     72 H72       -80.5584   27.3871  -73.7026 H         1 UNK         0.0837 
     73 H73       -81.7223   28.2838  -72.7804 H         1 UNK         0.0837 
     74 H74       -80.9265   30.0840  -71.6469 H         1 UNK         0.0685 
     75 H75       -80.0349   31.4405  -72.2657 H         1 UNK         0.0685 
     76 H76       -79.5703   27.8229  -71.3200 H         1 UNK         0.1434 
     77 H77       -75.5946   28.4891  -69.8551 H         1 UNK         0.1329 
     78 H78       -77.7293   31.6709  -71.7727 H         1 UNK         0.1335 
     79 H79       -75.7341   32.1377  -70.4284 H         1 UNK         0.0680 
     80 H80       -74.8635   30.8686  -69.6129 H         1 UNK         0.0680 
     81 H81       -73.8922   28.7122  -71.7462 H         1 UNK         0.1032 
     82 H82       -72.9997   29.5509  -70.4969 H         1 UNK         0.1032 
     83 H83       -71.3575   30.3619  -72.2279 H         1 UNK         0.0461 
     84 H84       -69.5989   29.3973  -71.2323 H         1 UNK         0.3453 
     85 H85       -69.3878   27.6734  -71.0677 H         1 UNK         0.3453 
     86 H86       -72.9085   28.5908  -74.0592 H         1 UNK         0.2984 
     87 H87       -73.2666   30.0324  -76.2709 H         1 UNK         0.0554 
     88 H88       -71.5982   31.5901  -77.2066 H         1 UNK         0.0847 
     89 H89       -71.8696   30.2681  -78.3300 H         1 UNK         0.0847 
     90 H90       -70.4081   30.3062  -77.3441 H         1 UNK         0.0847 
     91 H91       -73.1113   27.8746  -76.6527 H         1 UNK         0.3141 
     92 H92       -70.7125   25.6286  -77.4961 H         1 UNK         0.0743 
     93 H93       -70.0060   25.3847  -75.1137 H         1 UNK         0.0784 
     94 H94       -71.6794   25.4949  -74.5883 H         1 UNK         0.0784 
     95 H95       -71.1421   24.1213  -75.5562 H         1 UNK         0.0784 
     96 H96       -73.3314   25.1817  -76.3875 H         1 UNK         0.3213 
     97 H97       -75.1430   26.1069  -79.3379 H         1 UNK         0.0855 
     98 H98       -74.6630   23.4273  -77.9282 H         1 UNK         0.0814 
     99 H99       -74.5265   23.7314  -79.6521 H         1 UNK         0.0814 
    100 H100      -76.0965   23.8372  -78.8691 H         1 UNK         0.0814 
    101 H101      -76.0922   25.2573  -76.8056 H         1 UNK         0.3105 
    102 H102      -76.2189   28.4577  -75.2085 H         1 UNK         0.0547 
    103 H103      -78.3375   26.5702  -76.3703 H         1 UNK         0.0837 
    104 H104      -78.2747   28.3175  -76.5224 H         1 UNK         0.0837 
    105 H105      -78.5595   27.5894  -74.9516 H         1 UNK         0.0837 
    106 H106      -76.8318   25.7188  -74.4667 H         1 UNK         0.3020 
    107 H107      -73.7000   25.1254  -72.8882 H         1 UNK         0.1245 
    108 H108      -74.9969   26.5151  -71.2082 H         1 UNK         0.0781 
    109 H109      -74.8815   24.8223  -70.8427 H         1 UNK         0.0781 
    110 H110      -76.7824   26.4481  -69.2566 H         1 UNK         0.0836 
    111 H111      -78.4792   26.2926  -69.6215 H         1 UNK         0.0836 
    112 H112      -76.0997   23.5878  -73.0211 H         1 UNK         0.3022 
    113 H113      -75.4900   22.0451  -76.1708 H         1 UNK         0.0747 
    114 H114      -75.5660   19.9661  -74.8336 H         1 UNK         0.0793 
    115 H115      -74.0231   20.7676  -74.5963 H         1 UNK         0.0793 
    116 H116      -75.2582   20.8687  -73.3491 H         1 UNK         0.0793 
    117 H117      -77.5108   21.4719  -74.3338 H         1 UNK         0.3047 
    118 H118      -79.7377   22.1069  -75.2439 H         1 UNK         0.0822 
    119 H119      -80.6091   23.1304  -73.1483 H         1 UNK         0.0807 
    120 H120      -79.2589   24.2577  -73.1001 H         1 UNK         0.0807 
    121 H121      -78.9859   22.5366  -72.8662 H         1 UNK         0.0807 
    122 H122      -80.4080   24.9350  -75.0870 H         1 UNK         0.2946 
    123 H123      -80.7412   25.8681  -78.0301 H         1 UNK         0.1144 
    124 H124      -83.1758   25.6790  -78.6309 H         1 UNK         0.0793 
    125 H125      -83.2869   24.1826  -77.7053 H         1 UNK         0.0793 
    126 H126      -82.2714   24.2641  -79.1396 H         1 UNK         0.0793 
    127 H127      -82.4624   25.6064  -75.5908 H         1 UNK         0.2896 
@<TRIPOS>BOND
     1    1    2 1    
     2    1   67 1    
     3    1   68 1    
     4    1   69 1    
     5    2    3 2    
     6    2    4 am   BACKBONE|DICT|INTERRES
     7    4    5 1    
     8    4   70 1    
     9    5    6 1    
    10    5   65 1    
    11    5   71 1    
    12    6    7 1    
    13    6   72 1    
    14    6   73 1    
    15    7    8 1    
    16    8    9 1    
    17    8   74 1    
    18    8   75 1    
    19    9   10 ar   
    20    9   14 ar   
    21   10   11 ar   
    22   10   76 1    
    23   11   12 ar   
    24   11   48 1    
    25   12   13 ar   
    26   12   77 1    
    27   13   14 ar   
    28   13   15 1    
    29   14   78 1    
    30   15   16 1    
    31   15   79 1    
    32   15   80 1    
    33   16   17 1    
    34   17   18 1    
    35   17   81 1    
    36   17   82 1    
    37   18   19 1    
    38   18   22 1    
    39   18   83 1    
    40   19   20 am   BACKBONE|DICT|INTERRES
    41   19   21 2    
    42   20   84 1    
    43   20   85 1    
    44   22   23 am   BACKBONE|DICT|INTERRES
    45   22   86 1    
    46   23   24 2    
    47   23   25 1    
    48   25   26 1    
    49   25   27 1    
    50   25   87 1    
    51   26   88 1    
    52   26   89 1    
    53   26   90 1    
    54   27   28 am   BACKBONE|DICT|INTERRES
    55   27   91 1    
    56   28   29 2    
    57   28   30 1    
    58   30   31 1    
    59   30   32 1    
    60   30   92 1    
    61   31   93 1    
    62   31   94 1    
    63   31   95 1    
    64   32   33 am   BACKBONE|DICT|INTERRES
    65   32   96 1    
    66   33   34 2    
    67   33   35 1    
    68   35   36 1    
    69   35   37 1    
    70   35   97 1    
    71   36   98 1    
    72   36   99 1    
    73   36  100 1    
    74   37   38 am   BACKBONE|DICT|INTERRES
    75   37  101 1    
    76   38   39 2    
    77   38   40 1    
    78   40   41 1    
    79   40   42 1    
    80   40  102 1    
    81   41  103 1    
    82   41  104 1    
    83   41  105 1    
    84   42   43 am   BACKBONE|DICT|INTERRES
    85   42  106 1    
    86   43   44 2    
    87   43   45 1    
    88   45   46 1    
    89   45   49 1    
    90   45  107 1    
    91   46   47 1    
    92   46  108 1    
    93   46  109 1    
    94   47   48 1    
    95   48  110 1    
    96   48  111 1    
    97   49   50 am   BACKBONE|DICT|INTERRES
    98   49  112 1    
    99   50   51 2    
   100   50   52 1    
   101   52   53 1    
   102   52   54 1    
   103   52  113 1    
   104   53  114 1    
   105   53  115 1    
   106   53  116 1    
   107   54   55 am   BACKBONE|DICT|INTERRES
   108   54  117 1    
   109   55   56 2    
   110   55   57 1    
   111   57   58 1    
   112   57   59 1    
   113   57  118 1    
   114   58  119 1    
   115   58  120 1    
   116   58  121 1    
   117   59   60 am   BACKBONE|DICT|INTERRES
   118   59  122 1    
   119   60   61 2    
   120   60   62 1    
   121   62   63 1    
   122   62   64 1    
   123   62  123 1    
   124   63  124 1    
   125   63  125 1    
   126   63  126 1    
   127   64   65 am   BACKBONE|DICT|INTERRES
   128   64  127 1    
   129   65   66 2    
@<TRIPOS>SUBSTRUCTURE
     1 UNK         1 GROUP             0       ****    0 ROOT    
