@<TRIPOS>MOLECULE
3R135
127   129    1
SMALL
USER_CHARGES


@<TRIPOS>ATOM
      1 CA        -85.0312   28.6111  -72.0129 C.3       0 UNK        -0.1998 
      2 C         -84.5419   28.2651  -73.4110 C.2       0 UNK         0.4909 
      3 O         -85.2114   27.5203  -74.1275 O.2       0 UNK        -0.5240 
      4 N         -83.3804   28.8032  -73.8048 N.am      1 UNK        -0.4739 
      5 CA        -82.7267   28.5600  -75.0982 C.3       1 UNK         0.0864 
      6 C6        -81.6455   29.6267  -75.4187 C.3       11 UNK        -0.0881 
      7 S7        -80.5224   30.0027  -74.0262 S.3       11 UNK        -0.2682 
      8 C8        -78.9903   29.2171  -74.5943 C.3       11 UNK         0.0289 
      9 C9        -77.9756   29.1319  -73.4692 C.ar      11 UNK        -0.0687 
     10 C10       -78.0234   28.0494  -72.5913 C.ar      11 UNK        -0.0823 
     11 C11       -77.0860   27.9301  -71.5654 C.ar      11 UNK        -0.0830 
     12 C12       -76.1062   28.9125  -71.4105 C.ar      11 UNK        -0.1021 
     13 C13       -76.0504   30.0178  -72.2724 C.ar      11 UNK        -0.0753 
     14 C14       -76.9918   30.1129  -73.3053 C.ar      11 UNK        -0.0933 
     15 C15       -74.9928   31.1195  -72.1440 C.3       11 UNK         0.0166 
     16 S16       -73.8585   30.9577  -70.7161 S.3       11 UNK        -0.2615 
     17 C17       -72.2676   31.5404  -71.4011 C.3       11 UNK        -0.0865 
     18 CA        -71.3690   30.4132  -71.9937 C.3       10 UNK         0.0862 
     19 C         -70.9425   29.3310  -70.9650 C.2       10 UNK         0.5551 
     20 N         -70.2216   29.7173  -69.9210 N.am      10 UNK        -0.7319 
     21 O         -71.2502   28.1477  -71.1036 O.2       10 UNK        -0.5018 
     22 N         -71.9548   29.8066  -73.1930 N.am      10 UNK        -0.4509 
     23 C         -71.9895   30.3744  -74.4014 C.2       10 UNK         0.4899 
     24 O         -71.5201   31.4883  -74.6423 O.2       10 UNK        -0.4839 
     25 CA        -72.6912   29.5793  -75.5180 C.3       9 UNK         0.0222 
     26 CB        -72.3633   30.1224  -76.9258 C.3       9 UNK        -0.1966 
     27 N         -72.4570   28.1322  -75.4610 N.am      9 UNK        -0.4218 
     28 C         -71.2831   27.4887  -75.5631 C.2       9 UNK         0.5020 
     29 O         -70.1823   28.0415  -75.5773 O.2       9 UNK        -0.5274 
     30 CA        -71.3595   25.9607  -75.7406 C.3       8 UNK         0.0270 
     31 CB        -71.5312   25.2521  -74.3869 C.3       8 UNK        -0.1976 
     32 N         -72.4382   25.5664  -76.6539 N.am      8 UNK        -0.4313 
     33 C         -72.4872   25.8835  -77.9577 C.2       8 UNK         0.5041 
     34 O         -71.5623   26.4195  -78.5695 O.2       8 UNK        -0.5577 
     35 CA        -73.7978   25.5834  -78.7020 C.3       7 UNK         0.0284 
     36 CB        -73.8129   24.1450  -79.2457 C.3       7 UNK        -0.1958 
     37 N         -74.9705   25.8203  -77.8551 N.am      7 UNK        -0.4454 
     38 C         -75.4874   27.0336  -77.6093 C.2       7 UNK         0.5089 
     39 O         -75.0682   28.0715  -78.1194 O.2       7 UNK        -0.5125 
     40 CA        -76.6885   27.1089  -76.6479 C.3       6 UNK         0.0408 
     41 CB        -77.9880   26.9909  -77.4643 C.3       6 UNK        -0.1791 
     42 N         -76.6800   26.0900  -75.5917 N.am      6 UNK        -0.4762 
     43 C         -75.7214   25.9331  -74.6631 C.2       6 UNK         0.5007 
     44 O         -74.7539   26.6868  -74.5543 O.2       6 UNK        -0.5032 
     45 CA        -75.7884   24.6450  -73.8079 C.3       5 UNK         0.0783 
     46 C46       -76.7381   24.7542  -72.5909 C.3       11 UNK        -0.0857 
     47 S47       -75.9245   25.4651  -71.1243 S.3       11 UNK        -0.2512 
     48 C48       -77.1216   26.7390  -70.6233 C.3       11 UNK         0.0225 
     49 N         -76.1441   23.4877  -74.6290 N.am      5 UNK        -0.4615 
     50 C         -75.4272   22.9996  -75.6444 C.2       4 UNK         0.5053 
     51 O         -74.3151   23.4276  -75.9495 O.2       4 UNK        -0.5105 
     52 CA        -76.0894   21.9154  -76.5149 C.3       4 UNK         0.0263 
     53 CB        -75.9170   20.5149  -75.8959 C.3       4 UNK        -0.1981 
     54 N         -77.4949   22.2097  -76.8495 N.am      4 UNK        -0.4224 
     55 C         -78.5573   22.2525  -76.0311 C.2       3 UNK         0.4895 
     56 O         -78.5246   21.9406  -74.8379 O.2       3 UNK        -0.5091 
     57 CA        -79.8696   22.7599  -76.6519 C.3       3 UNK         0.0250 
     58 CB        -80.6502   21.5944  -77.2811 C.3       3 UNK        -0.1996 
     59 N         -80.7286   23.4406  -75.6775 N.am      3 UNK        -0.4254 
     60 C         -80.4121   24.5554  -75.0022 C.2       2 UNK         0.5004 
     61 O         -79.3402   25.1540  -75.1151 O.2       2 UNK        -0.5226 
     62 CA        -81.4658   25.0656  -74.0024 C.3       2 UNK         0.0269 
     63 CB        -81.0112   24.7842  -72.5606 C.3       2 UNK        -0.1926 
     64 N         -81.7890   26.4919  -74.1345 N.am      2 UNK        -0.4687 
     65 C         -82.2094   27.1107  -75.2503 C.2       1 UNK         0.5165 
     66 O         -82.2658   26.5724  -76.3570 O.2       1 UNK        -0.5079 
     67 H67       -85.1342   27.7048  -71.4167 H         1 UNK         0.0900 
     68 H68       -84.3453   29.2815  -71.4952 H         1 UNK         0.0900 
     69 H69       -86.0050   29.0972  -72.0657 H         1 UNK         0.0900 
     70 H70       -82.8710   29.4133  -73.1797 H         1 UNK         0.2959 
     71 H71       -83.5021   28.6661  -75.8609 H         1 UNK         0.1079 
     72 H72       -82.1438   30.5617  -75.6798 H         1 UNK         0.0837 
     73 H73       -81.0725   29.3533  -76.3073 H         1 UNK         0.0837 
     74 H74       -79.2192   28.2106  -74.9435 H         1 UNK         0.0685 
     75 H75       -78.5834   29.7658  -75.4451 H         1 UNK         0.0685 
     76 H76       -78.7890   27.2975  -72.7194 H         1 UNK         0.1434 
     77 H77       -75.3879   28.7922  -70.6131 H         1 UNK         0.1329 
     78 H78       -76.9594   30.9535  -73.9849 H         1 UNK         0.1335 
     79 H79       -74.4190   31.1447  -73.0690 H         1 UNK         0.0680 
     80 H80       -75.4930   32.0861  -72.0700 H         1 UNK         0.0680 
     81 H81       -72.4580   32.3077  -72.1527 H         1 UNK         0.1032 
     82 H82       -71.7331   32.0575  -70.6029 H         1 UNK         0.1032 
     83 H83       -70.4317   30.8752  -72.3106 H         1 UNK         0.0461 
     84 H84       -69.9539   30.6809  -69.7961 H         1 UNK         0.3453 
     85 H85       -69.9361   29.0277  -69.2435 H         1 UNK         0.3453 
     86 H86       -72.3212   28.8730  -73.0608 H         1 UNK         0.2984 
     87 H87       -73.7621   29.7116  -75.3564 H         1 UNK         0.0554 
     88 H88       -71.2933   30.0854  -77.1330 H         1 UNK         0.0847 
     89 H89       -72.6803   31.1606  -77.0301 H         1 UNK         0.0847 
     90 H90       -72.8716   29.5509  -77.7018 H         1 UNK         0.0847 
     91 H91       -73.2944   27.5630  -75.3481 H         1 UNK         0.3141 
     92 H92       -70.4167   25.6288  -76.1803 H         1 UNK         0.0743 
     93 H93       -70.7037   25.4907  -73.7173 H         1 UNK         0.0784 
     94 H94       -72.4502   25.5502  -73.8826 H         1 UNK         0.0784 
     95 H95       -71.5514   24.1685  -74.5060 H         1 UNK         0.0784 
     96 H96       -73.2112   25.0405  -76.2572 H         1 UNK         0.3213 
     97 H97       -73.8518   26.2590  -79.5590 H         1 UNK         0.0855 
     98 H98       -73.6861   23.4037  -78.4577 H         1 UNK         0.0814 
     99 H99       -72.9997   23.9960  -79.9572 H         1 UNK         0.0814 
    100 H100      -74.7435   23.9264  -79.7695 H         1 UNK         0.0814 
    101 H101      -75.3524   25.0257  -77.3642 H         1 UNK         0.3105 
    102 H102      -76.6652   28.0864  -76.1627 H         1 UNK         0.0547 
    103 H103      -78.8761   27.1038  -76.8462 H         1 UNK         0.0837 
    104 H104      -78.0361   27.7617  -78.2348 H         1 UNK         0.0837 
    105 H105      -78.0612   26.0251  -77.9655 H         1 UNK         0.0837 
    106 H106      -77.5015   25.4915  -75.5409 H         1 UNK         0.3020 
    107 H107      -74.7765   24.4563  -73.4417 H         1 UNK         0.1245 
    108 H108      -77.0740   23.7611  -72.2869 H         1 UNK         0.0781 
    109 H109      -77.6495   25.2932  -72.8472 H         1 UNK         0.0781 
    110 H110      -76.8840   27.0675  -69.6103 H         1 UNK         0.0836 
    111 H111      -78.1229   26.3078  -70.5747 H         1 UNK         0.0836 
    112 H112      -77.0554   23.0680  -74.4640 H         1 UNK         0.3022 
    113 H113      -75.5562   21.9139  -77.4669 H         1 UNK         0.0747 
    114 H114      -76.3532   19.7446  -76.5317 H         1 UNK         0.0793 
    115 H115      -74.8600   20.2745  -75.7739 H         1 UNK         0.0793 
    116 H116      -76.3788   20.4381  -74.9113 H         1 UNK         0.0793 
    117 H117      -77.6455   22.4805  -77.8120 H         1 UNK         0.3047 
    118 H118      -79.6268   23.4843  -77.4323 H         1 UNK         0.0822 
    119 H119      -80.0526   21.0829  -78.0370 H         1 UNK         0.0807 
    120 H120      -81.5588   21.9433  -77.7726 H         1 UNK         0.0807 
    121 H121      -80.9353   20.8513  -76.5349 H         1 UNK         0.0807 
    122 H122      -81.6170   22.9998  -75.4902 H         1 UNK         0.2946 
    123 H123      -82.3955   24.5195  -74.1762 H         1 UNK         0.1144 
    124 H124      -81.7890   25.0384  -71.8403 H         1 UNK         0.0793 
    125 H125      -80.1157   25.3489  -72.3021 H         1 UNK         0.0793 
    126 H126      -80.7777   23.7273  -72.4237 H         1 UNK         0.0793 
    127 H127      -81.7770   27.0351  -73.2841 H         1 UNK         0.2896 
@<TRIPOS>BOND
     1    1    2 1    
     2    1   67 1    
     3    1   68 1    
     4    1   69 1    
     5    2    3 2    
     6    2    4 am   BACKBONE|DICT|INTERRES
     7    4    5 1    
     8    4   70 1    
     9    5    6 1    
    10    5   65 1    
    11    5   71 1    
    12    6    7 1    
    13    6   72 1    
    14    6   73 1    
    15    7    8 1    
    16    8    9 1    
    17    8   74 1    
    18    8   75 1    
    19    9   10 ar   
    20    9   14 ar   
    21   10   11 ar   
    22   10   76 1    
    23   11   12 ar   
    24   11   48 1    
    25   12   13 ar   
    26   12   77 1    
    27   13   14 ar   
    28   13   15 1    
    29   14   78 1    
    30   15   16 1    
    31   15   79 1    
    32   15   80 1    
    33   16   17 1    
    34   17   18 1    
    35   17   81 1    
    36   17   82 1    
    37   18   19 1    
    38   18   22 1    
    39   18   83 1    
    40   19   20 am   BACKBONE|DICT|INTERRES
    41   19   21 2    
    42   20   84 1    
    43   20   85 1    
    44   22   23 am   BACKBONE|DICT|INTERRES
    45   22   86 1    
    46   23   24 2    
    47   23   25 1    
    48   25   26 1    
    49   25   27 1    
    50   25   87 1    
    51   26   88 1    
    52   26   89 1    
    53   26   90 1    
    54   27   28 am   BACKBONE|DICT|INTERRES
    55   27   91 1    
    56   28   29 2    
    57   28   30 1    
    58   30   31 1    
    59   30   32 1    
    60   30   92 1    
    61   31   93 1    
    62   31   94 1    
    63   31   95 1    
    64   32   33 am   BACKBONE|DICT|INTERRES
    65   32   96 1    
    66   33   34 2    
    67   33   35 1    
    68   35   36 1    
    69   35   37 1    
    70   35   97 1    
    71   36   98 1    
    72   36   99 1    
    73   36  100 1    
    74   37   38 am   BACKBONE|DICT|INTERRES
    75   37  101 1    
    76   38   39 2    
    77   38   40 1    
    78   40   41 1    
    79   40   42 1    
    80   40  102 1    
    81   41  103 1    
    82   41  104 1    
    83   41  105 1    
    84   42   43 am   BACKBONE|DICT|INTERRES
    85   42  106 1    
    86   43   44 2    
    87   43   45 1    
    88   45   46 1    
    89   45   49 1    
    90   45  107 1    
    91   46   47 1    
    92   46  108 1    
    93   46  109 1    
    94   47   48 1    
    95   48  110 1    
    96   48  111 1    
    97   49   50 am   BACKBONE|DICT|INTERRES
    98   49  112 1    
    99   50   51 2    
   100   50   52 1    
   101   52   53 1    
   102   52   54 1    
   103   52  113 1    
   104   53  114 1    
   105   53  115 1    
   106   53  116 1    
   107   54   55 am   BACKBONE|DICT|INTERRES
   108   54  117 1    
   109   55   56 2    
   110   55   57 1    
   111   57   58 1    
   112   57   59 1    
   113   57  118 1    
   114   58  119 1    
   115   58  120 1    
   116   58  121 1    
   117   59   60 am   BACKBONE|DICT|INTERRES
   118   59  122 1    
   119   60   61 2    
   120   60   62 1    
   121   62   63 1    
   122   62   64 1    
   123   62  123 1    
   124   63  124 1    
   125   63  125 1    
   126   63  126 1    
   127   64   65 am   BACKBONE|DICT|INTERRES
   128   64  127 1    
   129   65   66 2    
@<TRIPOS>SUBSTRUCTURE
     1 UNK         1 GROUP             0       ****    0 ROOT    
