@<TRIPOS>MOLECULE
3R135
127   129    1
SMALL
USER_CHARGES


@<TRIPOS>ATOM
      1 CA        -76.9422   22.2388  -75.6067 C.3       0 UNK        -0.1998 
      2 C         -76.9629   22.7713  -74.1818 C.2       0 UNK         0.4909 
      3 O         -76.2657   22.2409  -73.3170 O.2       0 UNK        -0.5240 
      4 N         -77.7593   23.8166  -73.9373 N.am      1 UNK        -0.4739 
      5 CA        -78.0011   24.4043  -72.6174 C.3       1 UNK         0.0864 
      6 C6        -78.3246   25.9147  -72.7358 C.3       11 UNK        -0.0881 
      7 S7        -77.7838   26.8626  -71.2813 S.3       11 UNK        -0.2682 
      8 C8        -78.5632   28.4760  -71.6146 C.3       11 UNK         0.0289 
      9 C9        -78.0896   29.1112  -72.9180 C.ar      11 UNK        -0.0687 
     10 C10       -79.0171   29.4691  -73.9035 C.ar      11 UNK        -0.0823 
     11 C11       -78.5952   30.0889  -75.0840 C.ar      11 UNK        -0.0830 
     12 C12       -77.2350   30.3477  -75.2746 C.ar      11 UNK        -0.1021 
     13 C13       -76.2983   29.9968  -74.2999 C.ar      11 UNK        -0.0753 
     14 C14       -76.7308   29.3761  -73.1243 C.ar      11 UNK        -0.0933 
     15 C15       -74.8264   30.3132  -74.5207 C.3       11 UNK         0.0166 
     16 S16       -74.3509   31.8526  -73.6708 S.3       11 UNK        -0.2615 
     17 C17       -73.7269   31.2171  -72.0733 C.3       11 UNK        -0.0865 
     18 CA        -72.2460   31.5990  -71.8020 C.3       10 UNK         0.0862 
     19 C         -71.7765   31.0290  -70.4307 C.2       10 UNK         0.5551 
     20 N         -70.7988   30.1326  -70.3803 N.am      10 UNK        -0.7319 
     21 O         -72.3125   31.4109  -69.3933 O.2       10 UNK        -0.5018 
     22 N         -71.3781   31.2801  -72.9487 N.am      10 UNK        -0.4509 
     23 C         -70.1487   31.7597  -73.1629 C.2       10 UNK         0.4899 
     24 O         -69.5592   32.5004  -72.3744 O.2       10 UNK        -0.4839 
     25 CA        -69.4728   31.3427  -74.4874 C.3       9 UNK         0.0222 
     26 CB        -68.0465   31.9086  -74.6272 C.3       9 UNK        -0.1966 
     27 N         -69.4262   29.8883  -74.6783 N.am      9 UNK        -0.4218 
     28 C         -70.4589   29.1130  -75.0332 C.2       9 UNK         0.5020 
     29 O         -71.6076   29.5332  -75.1915 O.2       9 UNK        -0.5274 
     30 CA        -70.1670   27.6100  -75.1711 C.3       8 UNK         0.0270 
     31 CB        -70.2730   26.9216  -73.7996 C.3       8 UNK        -0.1976 
     32 N         -71.0929   26.9577  -76.0981 N.am      8 UNK        -0.4313 
     33 C         -71.1303   27.1486  -77.4245 C.2       8 UNK         0.5041 
     34 O         -70.3198   27.8460  -78.0371 O.2       8 UNK        -0.5577 
     35 CA        -72.2396   26.4217  -78.2105 C.3       7 UNK         0.0284 
     36 CB        -71.6486   25.2524  -79.0166 C.3       7 UNK        -0.1958 
     37 N         -73.3142   25.9125  -77.3510 N.am      7 UNK        -0.4454 
     38 C         -74.3323   26.6513  -76.8925 C.2       7 UNK         0.5089 
     39 O         -74.5155   27.8351  -77.1833 O.2       7 UNK        -0.5125 
     40 CA        -75.2721   25.9501  -75.9009 C.3       6 UNK         0.0408 
     41 CB        -74.7561   26.1181  -74.4615 C.3       6 UNK        -0.1791 
     42 N         -76.6285   26.4877  -75.9855 N.am      6 UNK        -0.4762 
     43 C         -77.5433   26.0975  -76.8809 C.2       6 UNK         0.5007 
     44 O         -77.3352   25.2464  -77.7493 O.2       6 UNK        -0.5032 
     45 CA        -78.9246   26.7729  -76.7736 C.3       5 UNK         0.0783 
     46 C46       -78.9529   28.1175  -77.5379 C.3       11 UNK        -0.0857 
     47 S47       -80.3873   29.1107  -77.0040 S.3       11 UNK        -0.2512 
     48 C48       -79.6031   30.5156  -76.1457 C.3       11 UNK         0.0225 
     49 N         -79.9911   25.8810  -77.2399 N.am      5 UNK        -0.4615 
     50 C         -80.4164   24.7862  -76.6032 C.2       4 UNK         0.5053 
     51 O         -79.9865   24.4115  -75.5078 O.2       4 UNK        -0.5105 
     52 CA        -81.4820   23.9575  -77.3311 C.3       4 UNK         0.0263 
     53 CB        -80.8223   23.0245  -78.3605 C.3       4 UNK        -0.1981 
     54 N         -82.2023   23.1489  -76.3527 N.am      4 UNK        -0.4224 
     55 C         -83.5257   23.1458  -76.1521 C.2       3 UNK         0.4895 
     56 O         -84.3299   23.7588  -76.8556 O.2       3 UNK        -0.5091 
     57 CA        -84.0492   22.3186  -74.9604 C.3       3 UNK         0.0250 
     58 CB        -84.6313   20.9820  -75.4494 C.3       3 UNK        -0.1996 
     59 N         -83.0289   22.0524  -73.9391 N.am      3 UNK        -0.4254 
     60 C         -82.5091   22.9774  -73.1196 C.2       2 UNK         0.5004 
     61 O         -82.8850   24.1500  -73.0891 O.2       2 UNK        -0.5226 
     62 CA        -81.3471   22.5474  -72.2151 C.3       2 UNK         0.0269 
     63 CB        -81.0673   21.0282  -72.1925 C.3       2 UNK        -0.1926 
     64 N         -80.1609   23.2647  -72.6687 N.am      2 UNK        -0.4687 
     65 C         -79.1328   23.6436  -71.9001 C.2       1 UNK         0.5165 
     66 O         -79.0487   23.3999  -70.6955 O.2       1 UNK        -0.5079 
     67 H67       -77.5971   22.8106  -76.2644 H         1 UNK         0.0900 
     68 H68       -77.2687   21.1995  -75.6238 H         1 UNK         0.0900 
     69 H69       -75.9317   22.2869  -76.0113 H         1 UNK         0.0900 
     70 H70       -78.3771   24.1470  -74.6748 H         1 UNK         0.2959 
     71 H71       -77.0934   24.2848  -72.0209 H         1 UNK         0.1079 
     72 H72       -77.7940   26.3422  -73.5838 H         1 UNK         0.0837 
     73 H73       -79.3842   26.0950  -72.9318 H         1 UNK         0.0837 
     74 H74       -79.6469   28.3485  -71.6140 H         1 UNK         0.0685 
     75 H75       -78.3338   29.1528  -70.7906 H         1 UNK         0.0685 
     76 H76       -80.0708   29.2782  -73.7509 H         1 UNK         0.1434 
     77 H77       -76.9022   30.8365  -76.1804 H         1 UNK         0.1329 
     78 H78       -76.0137   29.1090  -72.3609 H         1 UNK         0.1335 
     79 H79       -74.2011   29.4820  -74.1946 H         1 UNK         0.0680 
     80 H80       -74.6240   30.4292  -75.5868 H         1 UNK         0.0680 
     81 H81       -73.8453   30.1335  -72.0310 H         1 UNK         0.1032 
     82 H82       -74.3696   31.6156  -71.2859 H         1 UNK         0.1032 
     83 H83       -72.2139   32.6847  -71.6913 H         1 UNK         0.0461 
     84 H84       -70.3460   29.8285  -71.2263 H         1 UNK         0.3453 
     85 H85       -70.5013   29.7731  -69.4870 H         1 UNK         0.3453 
     86 H86       -71.7760   30.6800  -73.6661 H         1 UNK         0.2984 
     87 H87       -70.0734   31.7715  -75.2925 H         1 UNK         0.0554 
     88 H88       -67.6116   31.6575  -75.5948 H         1 UNK         0.0847 
     89 H89       -67.3820   31.5282  -73.8503 H         1 UNK         0.0847 
     90 H90       -68.0476   32.9969  -74.5507 H         1 UNK         0.0847 
     91 H91       -68.5298   29.4492  -74.5225 H         1 UNK         0.3141 
     92 H92       -69.1532   27.4823  -75.5566 H         1 UNK         0.0743 
     93 H93       -69.5677   27.3522  -73.0875 H         1 UNK         0.0784 
     94 H94       -70.0470   25.8573  -73.8702 H         1 UNK         0.0784 
     95 H95       -71.2711   27.0258  -73.3711 H         1 UNK         0.0784 
     96 H96       -71.8169   26.3910  -75.6865 H         1 UNK         0.3213 
     97 H97       -72.6619   27.1414  -78.9157 H         1 UNK         0.0855 
     98 H98       -70.8686   25.6013  -79.6949 H         1 UNK         0.0814 
     99 H99       -72.4099   24.7653  -79.6263 H         1 UNK         0.0814 
    100 H100      -71.2015   24.4977  -78.3683 H         1 UNK         0.0814 
    101 H101      -73.2510   24.9423  -77.0753 H         1 UNK         0.3105 
    102 H102      -75.2978   24.8831  -76.1326 H         1 UNK         0.0547 
    103 H103      -74.7180   27.1657  -74.1639 H         1 UNK         0.0837 
    104 H104      -73.7505   25.7112  -74.3516 H         1 UNK         0.0837 
    105 H105      -75.3892   25.5929  -73.7472 H         1 UNK         0.0837 
    106 H106      -76.8353   27.2649  -75.3737 H         1 UNK         0.3020 
    107 H107      -79.1033   26.9692  -75.7136 H         1 UNK         0.1245 
    108 H108      -79.0167   27.9520  -78.6149 H         1 UNK         0.0781 
    109 H109      -78.0359   28.6883  -77.3844 H         1 UNK         0.0781 
    110 H110      -80.3811   31.1204  -75.6779 H         1 UNK         0.0836 
    111 H111      -79.1301   31.1581  -76.8902 H         1 UNK         0.0836 
    112 H112      -80.3797   26.0991  -78.1453 H         1 UNK         0.3022 
    113 H113      -82.1631   24.6406  -77.8433 H         1 UNK         0.0747 
    114 H114      -81.5670   22.4235  -78.8826 H         1 UNK         0.0793 
    115 H115      -80.2777   23.5931  -79.1155 H         1 UNK         0.0793 
    116 H116      -80.1116   22.3429  -77.8908 H         1 UNK         0.0793 
    117 H117      -81.6176   22.6676  -75.6850 H         1 UNK         0.3047 
    118 H118      -84.8537   22.8928  -74.4954 H         1 UNK         0.0822 
    119 H119      -85.0740   20.4172  -74.6287 H         1 UNK         0.0807 
    120 H120      -83.8705   20.3563  -75.9178 H         1 UNK         0.0807 
    121 H121      -85.4176   21.1457  -76.1878 H         1 UNK         0.0807 
    122 H122      -82.6673   21.1104  -73.8929 H         1 UNK         0.2946 
    123 H123      -81.6037   22.8709  -71.2035 H         1 UNK         0.1144 
    124 H124      -81.9513   20.4660  -71.8882 H         1 UNK         0.0793 
    125 H125      -80.2813   20.7893  -71.4758 H         1 UNK         0.0793 
    126 H126      -80.7439   20.6542  -73.1646 H         1 UNK         0.0793 
    127 H127      -80.1693   23.5694  -73.6372 H         1 UNK         0.2896 
@<TRIPOS>BOND
     1    1    2 1    
     2    1   67 1    
     3    1   68 1    
     4    1   69 1    
     5    2    3 2    
     6    2    4 am   BACKBONE|DICT|INTERRES
     7    4    5 1    
     8    4   70 1    
     9    5    6 1    
    10    5   65 1    
    11    5   71 1    
    12    6    7 1    
    13    6   72 1    
    14    6   73 1    
    15    7    8 1    
    16    8    9 1    
    17    8   74 1    
    18    8   75 1    
    19    9   10 ar   
    20    9   14 ar   
    21   10   11 ar   
    22   10   76 1    
    23   11   12 ar   
    24   11   48 1    
    25   12   13 ar   
    26   12   77 1    
    27   13   14 ar   
    28   13   15 1    
    29   14   78 1    
    30   15   16 1    
    31   15   79 1    
    32   15   80 1    
    33   16   17 1    
    34   17   18 1    
    35   17   81 1    
    36   17   82 1    
    37   18   19 1    
    38   18   22 1    
    39   18   83 1    
    40   19   20 am   BACKBONE|DICT|INTERRES
    41   19   21 2    
    42   20   84 1    
    43   20   85 1    
    44   22   23 am   BACKBONE|DICT|INTERRES
    45   22   86 1    
    46   23   24 2    
    47   23   25 1    
    48   25   26 1    
    49   25   27 1    
    50   25   87 1    
    51   26   88 1    
    52   26   89 1    
    53   26   90 1    
    54   27   28 am   BACKBONE|DICT|INTERRES
    55   27   91 1    
    56   28   29 2    
    57   28   30 1    
    58   30   31 1    
    59   30   32 1    
    60   30   92 1    
    61   31   93 1    
    62   31   94 1    
    63   31   95 1    
    64   32   33 am   BACKBONE|DICT|INTERRES
    65   32   96 1    
    66   33   34 2    
    67   33   35 1    
    68   35   36 1    
    69   35   37 1    
    70   35   97 1    
    71   36   98 1    
    72   36   99 1    
    73   36  100 1    
    74   37   38 am   BACKBONE|DICT|INTERRES
    75   37  101 1    
    76   38   39 2    
    77   38   40 1    
    78   40   41 1    
    79   40   42 1    
    80   40  102 1    
    81   41  103 1    
    82   41  104 1    
    83   41  105 1    
    84   42   43 am   BACKBONE|DICT|INTERRES
    85   42  106 1    
    86   43   44 2    
    87   43   45 1    
    88   45   46 1    
    89   45   49 1    
    90   45  107 1    
    91   46   47 1    
    92   46  108 1    
    93   46  109 1    
    94   47   48 1    
    95   48  110 1    
    96   48  111 1    
    97   49   50 am   BACKBONE|DICT|INTERRES
    98   49  112 1    
    99   50   51 2    
   100   50   52 1    
   101   52   53 1    
   102   52   54 1    
   103   52  113 1    
   104   53  114 1    
   105   53  115 1    
   106   53  116 1    
   107   54   55 am   BACKBONE|DICT|INTERRES
   108   54  117 1    
   109   55   56 2    
   110   55   57 1    
   111   57   58 1    
   112   57   59 1    
   113   57  118 1    
   114   58  119 1    
   115   58  120 1    
   116   58  121 1    
   117   59   60 am   BACKBONE|DICT|INTERRES
   118   59  122 1    
   119   60   61 2    
   120   60   62 1    
   121   62   63 1    
   122   62   64 1    
   123   62  123 1    
   124   63  124 1    
   125   63  125 1    
   126   63  126 1    
   127   64   65 am   BACKBONE|DICT|INTERRES
   128   64  127 1    
   129   65   66 2    
@<TRIPOS>SUBSTRUCTURE
     1 UNK         1 GROUP             0       ****    0 ROOT    
