@<TRIPOS>MOLECULE
3R135
127   129    1
SMALL
USER_CHARGES


@<TRIPOS>ATOM
      1 CA        -81.0929   28.7883  -78.3288 C.3       0 UNK        -0.1998 
      2 C         -80.6629   28.1191  -77.0325 C.2       0 UNK         0.4909 
      3 O         -80.0257   27.0688  -77.0753 O.2       0 UNK        -0.5240 
      4 N         -80.9911   28.7327  -75.8863 N.am      1 UNK        -0.4739 
      5 CA        -80.7089   28.2449  -74.5292 C.3       1 UNK         0.0864 
      6 C6        -81.1969   29.2858  -73.4866 C.3       11 UNK        -0.0881 
      7 S7        -80.9337   28.8290  -71.7375 S.3       11 UNK        -0.2682 
      8 C8        -79.5513   29.9145  -71.2485 C.3       11 UNK         0.0289 
      9 C9        -78.2015   29.4497  -71.7836 C.ar      11 UNK        -0.0687 
     10 C10       -77.8033   28.1159  -71.6408 C.ar      11 UNK        -0.0823 
     11 C11       -76.5563   27.6940  -72.1056 C.ar      11 UNK        -0.0830 
     12 C12       -75.6882   28.6182  -72.6880 C.ar      11 UNK        -0.1021 
     13 C13       -76.0664   29.9560  -72.8282 C.ar      11 UNK        -0.0753 
     14 C14       -77.3284   30.3646  -72.3834 C.ar      11 UNK        -0.0933 
     15 C15       -75.1153   30.9472  -73.4843 C.3       11 UNK         0.0166 
     16 S16       -74.4093   32.1279  -72.2972 S.3       11 UNK        -0.2615 
     17 C17       -73.4498   31.0375  -71.1922 C.3       11 UNK        -0.0865 
     18 CA        -71.9220   31.1312  -71.4326 C.3       10 UNK         0.0862 
     19 C         -71.1408   30.5691  -70.2066 C.2       10 UNK         0.5551 
     20 N         -70.4054   29.4699  -70.3280 N.am      10 UNK        -0.7319 
     21 O         -71.1986   31.1494  -69.1253 O.2       10 UNK        -0.5018 
     22 N         -71.5143   30.5366  -72.7215 N.am      10 UNK        -0.4509 
     23 C         -70.3723   30.8430  -73.3472 C.2       10 UNK         0.4899 
     24 O         -69.6535   31.7872  -73.0171 O.2       10 UNK        -0.4839 
     25 CA        -69.8967   29.9378  -74.5002 C.3       9 UNK         0.0222 
     26 CB        -69.0731   28.7589  -73.9446 C.3       9 UNK        -0.1966 
     27 N         -70.9027   29.4554  -75.4580 N.am      9 UNK        -0.4218 
     28 C         -71.9510   28.6446  -75.2620 C.2       9 UNK         0.5020 
     29 O         -72.3627   28.2862  -74.1558 O.2       9 UNK        -0.5274 
     30 CA        -72.5868   28.0719  -76.5404 C.3       8 UNK         0.0270 
     31 CB        -71.9776   26.6972  -76.8581 C.3       8 UNK        -0.1976 
     32 N         -74.0389   27.9400  -76.4282 N.am      8 UNK        -0.4313 
     33 C         -74.8866   28.9742  -76.5015 C.2       8 UNK         0.5041 
     34 O         -74.5141   30.1309  -76.7105 O.2       8 UNK        -0.5577 
     35 CA        -76.3888   28.6815  -76.3028 C.3       7 UNK         0.0284 
     36 CB        -77.2914   29.7738  -76.9148 C.3       7 UNK        -0.1958 
     37 N         -76.8021   27.3383  -76.7262 N.am      7 UNK        -0.4454 
     38 C         -76.7454   26.8125  -77.9591 C.2       7 UNK         0.5089 
     39 O         -76.3518   27.4254  -78.9532 O.2       7 UNK        -0.5125 
     40 CA        -77.1870   25.3374  -78.0852 C.3       6 UNK         0.0408 
     41 CB        -76.6715   24.6648  -79.3747 C.3       6 UNK        -0.1791 
     42 N         -76.8482   24.5259  -76.9075 N.am      6 UNK        -0.4762 
     43 C         -75.6214   24.3067  -76.4055 C.2       6 UNK         0.5007 
     44 O         -74.5957   24.7841  -76.8893 O.2       6 UNK        -0.5032 
     45 CA        -75.5016   23.4326  -75.1432 C.3       5 UNK         0.0783 
     46 C46       -75.3312   24.2884  -73.8622 C.3       11 UNK        -0.0857 
     47 S47       -76.7689   25.3369  -73.4621 S.3       11 UNK        -0.2512 
     48 C48       -76.1555   26.2346  -72.0086 C.3       11 UNK         0.0225 
     49 N         -76.6051   22.4708  -75.0279 N.am      5 UNK        -0.4615 
     50 C         -76.4539   21.1405  -75.1052 C.2       4 UNK         0.5053 
     51 O         -75.3715   20.5866  -75.3017 O.2       4 UNK        -0.5105 
     52 CA        -77.7015   20.2574  -74.9141 C.3       4 UNK         0.0263 
     53 CB        -77.7969   19.7820  -73.4550 C.3       4 UNK        -0.1981 
     54 N         -78.9537   20.9162  -75.2821 N.am      4 UNK        -0.4224 
     55 C         -79.3261   21.2218  -76.5328 C.2       3 UNK         0.4895 
     56 O         -78.6825   20.9110  -77.5353 O.2       3 UNK        -0.5091 
     57 CA        -80.6321   22.0256  -76.6943 C.3       3 UNK         0.0250 
     58 CB        -81.7882   21.0953  -77.0962 C.3       3 UNK        -0.1996 
     59 N         -81.0262   22.8017  -75.5088 N.am      3 UNK        -0.4254 
     60 C         -80.2896   23.7762  -74.9589 C.2       2 UNK         0.5004 
     61 O         -79.1596   24.0749  -75.3517 O.2       2 UNK        -0.5226 
     62 CA        -80.8737   24.4853  -73.7305 C.3       2 UNK         0.0269 
     63 CB        -80.2934   23.8856  -72.4391 C.3       2 UNK        -0.1926 
     64 N         -80.5274   25.9030  -73.7989 N.am      2 UNK        -0.4687 
     65 C         -81.3289   26.8445  -74.3121 C.2       1 UNK         0.5165 
     66 O         -82.5080   26.6482  -74.6216 O.2       1 UNK        -0.5079 
     67 H67       -80.2192   29.0115  -78.9407 H         1 UNK         0.0900 
     68 H68       -81.6293   29.7200  -78.1502 H         1 UNK         0.0900 
     69 H69       -81.7449   28.1235  -78.8948 H         1 UNK         0.0900 
     70 H70       -81.5331   29.5834  -75.9327 H         1 UNK         0.2959 
     71 H71       -79.6235   28.1567  -74.4408 H         1 UNK         0.1079 
     72 H72       -82.2662   29.4647  -73.6149 H         1 UNK         0.0837 
     73 H73       -80.7138   30.2457  -73.6760 H         1 UNK         0.0837 
     74 H74       -79.4972   29.9329  -70.1593 H         1 UNK         0.0685 
     75 H75       -79.7684   30.9374  -71.5602 H         1 UNK         0.0685 
     76 H76       -78.4705   27.4011  -71.1785 H         1 UNK         0.1434 
     77 H77       -74.7229   28.2900  -73.0487 H         1 UNK         0.1329 
     78 H78       -77.6197   31.4005  -72.4913 H         1 UNK         0.1335 
     79 H79       -74.2950   30.4287  -73.9813 H         1 UNK         0.0680 
     80 H80       -75.6465   31.4977  -74.2620 H         1 UNK         0.0680 
     81 H81       -73.7833   30.0032  -71.2716 H         1 UNK         0.1032 
     82 H82       -73.6992   31.3458  -70.1748 H         1 UNK         0.1032 
     83 H83       -71.6720   32.1937  -71.4662 H         1 UNK         0.0461 
     84 H84       -70.3596   28.9809  -71.2067 H         1 UNK         0.3453 
     85 H85       -69.9025   29.1213  -69.5272 H         1 UNK         0.3453 
     86 H86       -72.0303   29.7244  -73.0520 H         1 UNK         0.2984 
     87 H87       -69.2155   30.5482  -75.0955 H         1 UNK         0.0554 
     88 H88       -68.5940   28.1979  -74.7470 H         1 UNK         0.0847 
     89 H89       -69.6897   28.0631  -73.3747 H         1 UNK         0.0847 
     90 H90       -68.2814   29.1105  -73.2813 H         1 UNK         0.0847 
     91 H91       -70.7063   29.7103  -76.4165 H         1 UNK         0.3141 
     92 H92       -72.3690   28.7403  -77.3765 H         1 UNK         0.0743 
     93 H93       -72.1714   25.9773  -76.0615 H         1 UNK         0.0784 
     94 H94       -72.3827   26.2883  -77.7841 H         1 UNK         0.0784 
     95 H95       -70.8957   26.7649  -76.9801 H         1 UNK         0.0784 
     96 H96       -74.4028   27.0074  -76.2815 H         1 UNK         0.3213 
     97 H97       -76.5567   28.7034  -75.2288 H         1 UNK         0.0855 
     98 H98       -77.2172   29.8032  -78.0019 H         1 UNK         0.0814 
     99 H99       -77.0215   30.7630  -76.5432 H         1 UNK         0.0814 
    100 H100      -78.3335   29.6182  -76.6485 H         1 UNK         0.0814 
    101 H101      -77.1481   26.7323  -75.9939 H         1 UNK         0.3105 
    102 H102      -78.2761   25.3481  -78.1366 H         1 UNK         0.0547 
    103 H103      -77.0397   25.1842  -80.2601 H         1 UNK         0.0837 
    104 H104      -75.5824   24.6683  -79.4257 H         1 UNK         0.0837 
    105 H105      -77.0085   23.6305  -79.4436 H         1 UNK         0.0837 
    106 H106      -77.6520   24.1873  -76.3805 H         1 UNK         0.3020 
    107 H107      -74.5623   22.8902  -75.2736 H         1 UNK         0.1245 
    108 H108      -75.1381   23.6345  -73.0103 H         1 UNK         0.0781 
    109 H109      -74.4495   24.9263  -73.9544 H         1 UNK         0.0781 
    110 H110      -76.5640   25.7824  -71.1036 H         1 UNK         0.0836 
    111 H111      -75.0702   26.1503  -71.9326 H         1 UNK         0.0836 
    112 H112      -77.5286   22.8658  -74.8910 H         1 UNK         0.3022 
    113 H113      -77.5821   19.3794  -75.5526 H         1 UNK         0.0747 
    114 H114      -78.6283   19.0907  -73.3155 H         1 UNK         0.0793 
    115 H115      -76.8885   19.2572  -73.1555 H         1 UNK         0.0793 
    116 H116      -77.9327   20.6167  -72.7658 H         1 UNK         0.0793 
    117 H117      -79.5564   21.2035  -74.5256 H         1 UNK         0.3047 
    118 H118      -80.4667   22.7367  -77.5068 H         1 UNK         0.0822 
    119 H119      -82.6942   21.6595  -77.3185 H         1 UNK         0.0807 
    120 H120      -82.0220   20.3779  -76.3085 H         1 UNK         0.0807 
    121 H121      -81.5377   20.5250  -77.9920 H         1 UNK         0.0807 
    122 H122      -81.9350   22.5951  -75.1186 H         1 UNK         0.2946 
    123 H123      -81.9587   24.3582  -73.7182 H         1 UNK         0.1144 
    124 H124      -80.6730   24.4038  -71.5583 H         1 UNK         0.0793 
    125 H125      -79.2047   23.9430  -72.4154 H         1 UNK         0.0793 
    126 H126      -80.5661   22.8344  -72.3386 H         1 UNK         0.0793 
    127 H127      -79.5553   26.1215  -73.6298 H         1 UNK         0.2896 
@<TRIPOS>BOND
     1    1    2 1    
     2    1   67 1    
     3    1   68 1    
     4    1   69 1    
     5    2    3 2    
     6    2    4 am   BACKBONE|DICT|INTERRES
     7    4    5 1    
     8    4   70 1    
     9    5    6 1    
    10    5   65 1    
    11    5   71 1    
    12    6    7 1    
    13    6   72 1    
    14    6   73 1    
    15    7    8 1    
    16    8    9 1    
    17    8   74 1    
    18    8   75 1    
    19    9   10 ar   
    20    9   14 ar   
    21   10   11 ar   
    22   10   76 1    
    23   11   12 ar   
    24   11   48 1    
    25   12   13 ar   
    26   12   77 1    
    27   13   14 ar   
    28   13   15 1    
    29   14   78 1    
    30   15   16 1    
    31   15   79 1    
    32   15   80 1    
    33   16   17 1    
    34   17   18 1    
    35   17   81 1    
    36   17   82 1    
    37   18   19 1    
    38   18   22 1    
    39   18   83 1    
    40   19   20 am   BACKBONE|DICT|INTERRES
    41   19   21 2    
    42   20   84 1    
    43   20   85 1    
    44   22   23 am   BACKBONE|DICT|INTERRES
    45   22   86 1    
    46   23   24 2    
    47   23   25 1    
    48   25   26 1    
    49   25   27 1    
    50   25   87 1    
    51   26   88 1    
    52   26   89 1    
    53   26   90 1    
    54   27   28 am   BACKBONE|DICT|INTERRES
    55   27   91 1    
    56   28   29 2    
    57   28   30 1    
    58   30   31 1    
    59   30   32 1    
    60   30   92 1    
    61   31   93 1    
    62   31   94 1    
    63   31   95 1    
    64   32   33 am   BACKBONE|DICT|INTERRES
    65   32   96 1    
    66   33   34 2    
    67   33   35 1    
    68   35   36 1    
    69   35   37 1    
    70   35   97 1    
    71   36   98 1    
    72   36   99 1    
    73   36  100 1    
    74   37   38 am   BACKBONE|DICT|INTERRES
    75   37  101 1    
    76   38   39 2    
    77   38   40 1    
    78   40   41 1    
    79   40   42 1    
    80   40  102 1    
    81   41  103 1    
    82   41  104 1    
    83   41  105 1    
    84   42   43 am   BACKBONE|DICT|INTERRES
    85   42  106 1    
    86   43   44 2    
    87   43   45 1    
    88   45   46 1    
    89   45   49 1    
    90   45  107 1    
    91   46   47 1    
    92   46  108 1    
    93   46  109 1    
    94   47   48 1    
    95   48  110 1    
    96   48  111 1    
    97   49   50 am   BACKBONE|DICT|INTERRES
    98   49  112 1    
    99   50   51 2    
   100   50   52 1    
   101   52   53 1    
   102   52   54 1    
   103   52  113 1    
   104   53  114 1    
   105   53  115 1    
   106   53  116 1    
   107   54   55 am   BACKBONE|DICT|INTERRES
   108   54  117 1    
   109   55   56 2    
   110   55   57 1    
   111   57   58 1    
   112   57   59 1    
   113   57  118 1    
   114   58  119 1    
   115   58  120 1    
   116   58  121 1    
   117   59   60 am   BACKBONE|DICT|INTERRES
   118   59  122 1    
   119   60   61 2    
   120   60   62 1    
   121   62   63 1    
   122   62   64 1    
   123   62  123 1    
   124   63  124 1    
   125   63  125 1    
   126   63  126 1    
   127   64   65 am   BACKBONE|DICT|INTERRES
   128   64  127 1    
   129   65   66 2    
@<TRIPOS>SUBSTRUCTURE
     1 UNK         1 GROUP             0       ****    0 ROOT    
