@<TRIPOS>MOLECULE
3R135
127   129    1
SMALL
USER_CHARGES


@<TRIPOS>ATOM
      1 CA        -84.6921   25.1969  -70.4950 C.3       0 UNK        -0.1998 
      2 C         -83.4053   25.1914  -71.3066 C.2       0 UNK         0.4909 
      3 O         -82.9248   24.1205  -71.6768 O.2       0 UNK        -0.5240 
      4 N         -82.8560   26.3820  -71.5894 N.am      1 UNK        -0.4739 
      5 CA        -81.6067   26.6196  -72.3348 C.3       1 UNK         0.0864 
      6 C6        -80.3450   26.0503  -71.6229 C.3       11 UNK        -0.0881 
      7 S7        -80.0536   26.8970  -70.0280 S.3       11 UNK        -0.2682 
      8 C8        -78.2270   26.9784  -69.9379 C.3       11 UNK         0.0289 
      9 C9        -77.5154   27.8101  -71.0106 C.ar      11 UNK        -0.0687 
     10 C10       -78.1968   28.6046  -71.9423 C.ar      11 UNK        -0.0823 
     11 C11       -77.5046   29.2700  -72.9566 C.ar      11 UNK        -0.0830 
     12 C12       -76.1116   29.1983  -73.0042 C.ar      11 UNK        -0.1021 
     13 C13       -75.4140   28.4268  -72.0727 C.ar      11 UNK        -0.0753 
     14 C14       -76.1197   27.7399  -71.0804 C.ar      11 UNK        -0.0933 
     15 C15       -73.9081   28.2622  -72.1943 C.3       11 UNK         0.0166 
     16 S16       -72.9637   29.4178  -71.1466 S.3       11 UNK        -0.2615 
     17 C17       -73.3539   31.0687  -71.8387 C.3       11 UNK        -0.0865 
     18 CA        -72.4106   31.5437  -72.9774 C.3       10 UNK         0.0862 
     19 C         -70.9607   31.8293  -72.4812 C.2       10 UNK         0.5551 
     20 N         -69.9257   31.1930  -73.0192 N.am      10 UNK        -0.7319 
     21 O         -70.7716   32.6620  -71.5978 O.2       10 UNK        -0.5018 
     22 N         -72.5009   30.6591  -74.1455 N.am      10 UNK        -0.4509 
     23 C         -72.2166   30.9984  -75.4081 C.2       10 UNK         0.4899 
     24 O         -71.9509   32.1471  -75.7649 O.2       10 UNK        -0.4839 
     25 CA        -72.2315   29.8498  -76.4399 C.3       9 UNK         0.0222 
     26 CB        -71.3655   30.1518  -77.6811 C.3       9 UNK        -0.1966 
     27 N         -71.8865   28.5357  -75.8716 N.am      9 UNK        -0.4218 
     28 C         -70.7397   28.2053  -75.2530 C.2       9 UNK         0.5020 
     29 O         -69.8218   29.0065  -75.0704 O.2       9 UNK        -0.5274 
     30 CA        -70.5650   26.7745  -74.7160 C.3       8 UNK         0.0270 
     31 CB        -70.4771   26.7642  -73.1775 C.3       8 UNK        -0.1976 
     32 N         -71.5814   25.8158  -75.1695 N.am      8 UNK        -0.4313 
     33 C         -71.3391   24.5065  -75.3412 C.2       8 UNK         0.5041 
     34 O         -70.2448   23.9810  -75.1284 O.2       8 UNK        -0.5577 
     35 CA        -72.4974   23.6150  -75.8294 C.3       7 UNK         0.0284 
     36 CB        -73.1843   22.9338  -74.6350 C.3       7 UNK        -0.1958 
     37 N         -73.4998   24.3279  -76.6238 N.am      7 UNK        -0.4454 
     38 C         -73.2670   24.8867  -77.8215 C.2       7 UNK         0.5089 
     39 O         -72.1962   24.7842  -78.4206 O.2       7 UNK        -0.5125 
     40 CA        -74.3962   25.7177  -78.4639 C.3       6 UNK         0.0408 
     41 CB        -74.9840   24.9751  -79.6749 C.3       6 UNK        -0.1791 
     42 N         -75.4925   26.0891  -77.5642 N.am      6 UNK        -0.4762 
     43 C         -75.3930   26.8066  -76.4355 C.2       6 UNK         0.5007 
     44 O         -74.3272   27.2274  -75.9804 O.2       6 UNK        -0.5032 
     45 CA        -76.7047   27.0402  -75.6597 C.3       5 UNK         0.0783 
     46 C46       -77.3691   28.3484  -76.1674 C.3       11 UNK        -0.0857 
     47 S47       -78.8960   28.8185  -75.2854 S.3       11 UNK        -0.2512 
     48 C48       -78.2745   29.9998  -74.0436 C.3       11 UNK         0.0225 
     49 N         -77.6121   25.8819  -75.6826 N.am      5 UNK        -0.4615 
     50 C         -77.2877   24.6272  -75.3242 C.2       4 UNK         0.5053 
     51 O         -76.1579   24.2913  -74.9687 O.2       4 UNK        -0.5105 
     52 CA        -78.3838   23.5522  -75.3900 C.3       4 UNK         0.0263 
     53 CB        -78.8705   23.1858  -73.9792 C.3       4 UNK        -0.1981 
     54 N         -79.5247   23.9664  -76.2088 N.am      4 UNK        -0.4224 
     55 C         -79.6207   23.7686  -77.5309 C.2       3 UNK         0.4895 
     56 O         -78.7500   23.1965  -78.1882 O.2       3 UNK        -0.5091 
     57 CA        -80.8563   24.3180  -78.2749 C.3       3 UNK         0.0250 
     58 CB        -81.6448   23.1891  -78.9715 C.3       3 UNK        -0.1996 
     59 N         -81.7425   25.1797  -77.4778 N.am      3 UNK        -0.4254 
     60 C         -82.5431   24.8415  -76.4562 C.2       2 UNK         0.5004 
     61 O         -82.6832   23.6967  -76.0226 O.2       2 UNK        -0.5226 
     62 CA        -83.2871   26.0067  -75.7794 C.3       2 UNK         0.0269 
     63 CB        -84.8093   25.8220  -75.8990 C.3       2 UNK        -0.1926 
     64 N         -82.9363   26.1912  -74.3662 N.am      2 UNK        -0.4687 
     65 C         -81.7036   26.2420  -73.8336 C.2       1 UNK         0.5165 
     66 O         -80.6749   26.0616  -74.4869 O.2       1 UNK        -0.5079 
     67 H67       -85.0079   26.2074  -70.2358 H         1 UNK         0.0900 
     68 H68       -84.5532   24.6382  -69.5698 H         1 UNK         0.0900 
     69 H69       -85.4949   24.7250  -71.0610 H         1 UNK         0.0900 
     70 H70       -83.3093   27.2185  -71.2470 H         1 UNK         0.2959 
     71 H71       -81.4912   27.7043  -72.3598 H         1 UNK         0.1079 
     72 H72       -79.4584   26.1680  -72.2472 H         1 UNK         0.0837 
     73 H73       -80.4408   24.9788  -71.4447 H         1 UNK         0.0837 
     74 H74       -77.9567   27.3793  -68.9602 H         1 UNK         0.0685 
     75 H75       -77.8433   25.9574  -69.9680 H         1 UNK         0.0685 
     76 H76       -79.2735   28.6766  -71.9219 H         1 UNK         0.1434 
     77 H77       -75.5745   29.7000  -73.7977 H         1 UNK         0.1329 
     78 H78       -75.5790   27.1248  -70.3737 H         1 UNK         0.1335 
     79 H79       -73.6017   28.3553  -73.2356 H         1 UNK         0.0680 
     80 H80       -73.6419   27.2452  -71.9028 H         1 UNK         0.0680 
     81 H81       -74.3870   31.0918  -72.1811 H         1 UNK         0.1032 
     82 H82       -73.3249   31.7848  -71.0153 H         1 UNK         0.1032 
     83 H83       -72.7895   32.5168  -73.2960 H         1 UNK         0.0461 
     84 H84       -68.9980   31.3999  -72.6860 H         1 UNK         0.3453 
     85 H85       -70.0513   30.5071  -73.7556 H         1 UNK         0.3453 
     86 H86       -72.6703   29.6875  -73.9416 H         1 UNK         0.2984 
     87 H87       -73.2660   29.7673  -76.7765 H         1 UNK         0.0554 
     88 H88       -71.4099   29.3368  -78.4034 H         1 UNK         0.0847 
     89 H89       -70.3195   30.3091  -77.4162 H         1 UNK         0.0847 
     90 H90       -71.7098   31.0525  -78.1908 H         1 UNK         0.0847 
     91 H91       -72.6421   27.8583  -75.9404 H         1 UNK         0.3141 
     92 H92       -69.5958   26.4542  -75.1049 H         1 UNK         0.0743 
     93 H93       -71.4294   27.0181  -72.7173 H         1 UNK         0.0784 
     94 H94       -70.1778   25.7847  -72.8043 H         1 UNK         0.0784 
     95 H95       -69.7391   27.4823  -72.8167 H         1 UNK         0.0784 
     96 H96       -72.5136   26.1608  -75.3617 H         1 UNK         0.3213 
     97 H97       -72.0653   22.8374  -76.4631 H         1 UNK         0.0855 
     98 H98       -72.4688   22.3520  -74.0523 H         1 UNK         0.0814 
     99 H99       -73.9673   22.2497  -74.9630 H         1 UNK         0.0814 
    100 H100      -73.6375   23.6625  -73.9615 H         1 UNK         0.0814 
    101 H101      -74.4142   24.4459  -76.1998 H         1 UNK         0.3105 
    102 H102      -73.9425   26.6451  -78.8190 H         1 UNK         0.0547 
    103 H103      -74.2030   24.7052  -80.3874 H         1 UNK         0.0837 
    104 H104      -75.4860   24.0533  -79.3774 H         1 UNK         0.0837 
    105 H105      -75.7049   25.5932  -80.2100 H         1 UNK         0.0837 
    106 H106      -76.4114   25.7591  -77.8236 H         1 UNK         0.3020 
    107 H107      -76.4209   27.1652  -74.6159 H         1 UNK         0.1245 
    108 H108      -77.6267   28.2516  -77.2239 H         1 UNK         0.0781 
    109 H109      -76.6667   29.1825  -76.1110 H         1 UNK         0.0781 
    110 H110      -79.1201   30.5295  -73.6024 H         1 UNK         0.0836 
    111 H111      -77.6553   30.7591  -74.5238 H         1 UNK         0.0836 
    112 H112      -78.5812   26.0839  -75.8869 H         1 UNK         0.3022 
    113 H113      -77.9334   22.6576  -75.8256 H         1 UNK         0.0747 
    114 H114      -78.0464   22.8196  -73.3654 H         1 UNK         0.0793 
    115 H115      -79.3015   24.0427  -73.4649 H         1 UNK         0.0793 
    116 H116      -79.6258   22.4004  -74.0116 H         1 UNK         0.0793 
    117 H117      -80.2538   24.4866  -75.7311 H         1 UNK         0.3047 
    118 H118      -80.4586   24.9632  -79.0599 H         1 UNK         0.0822 
    119 H119      -82.0257   22.4569  -78.2591 H         1 UNK         0.0807 
    120 H120      -81.0117   22.6498  -79.6773 H         1 UNK         0.0807 
    121 H121      -82.4911   23.5834  -79.5341 H         1 UNK         0.0807 
    122 H122      -81.6925   26.1603  -77.7193 H         1 UNK         0.2946 
    123 H123      -83.0217   26.9339  -76.2917 H         1 UNK         0.1144 
    124 H124      -85.1071   25.6928  -76.9406 H         1 UNK         0.0793 
    125 H125      -85.1517   24.9428  -75.3512 H         1 UNK         0.0793 
    126 H126      -85.3482   26.6884  -75.5150 H         1 UNK         0.0793 
    127 H127      -83.7097   26.3302  -73.7328 H         1 UNK         0.2896 
@<TRIPOS>BOND
     1    1    2 1    
     2    1   67 1    
     3    1   68 1    
     4    1   69 1    
     5    2    3 2    
     6    2    4 am   BACKBONE|DICT|INTERRES
     7    4    5 1    
     8    4   70 1    
     9    5    6 1    
    10    5   65 1    
    11    5   71 1    
    12    6    7 1    
    13    6   72 1    
    14    6   73 1    
    15    7    8 1    
    16    8    9 1    
    17    8   74 1    
    18    8   75 1    
    19    9   10 ar   
    20    9   14 ar   
    21   10   11 ar   
    22   10   76 1    
    23   11   12 ar   
    24   11   48 1    
    25   12   13 ar   
    26   12   77 1    
    27   13   14 ar   
    28   13   15 1    
    29   14   78 1    
    30   15   16 1    
    31   15   79 1    
    32   15   80 1    
    33   16   17 1    
    34   17   18 1    
    35   17   81 1    
    36   17   82 1    
    37   18   19 1    
    38   18   22 1    
    39   18   83 1    
    40   19   20 am   BACKBONE|DICT|INTERRES
    41   19   21 2    
    42   20   84 1    
    43   20   85 1    
    44   22   23 am   BACKBONE|DICT|INTERRES
    45   22   86 1    
    46   23   24 2    
    47   23   25 1    
    48   25   26 1    
    49   25   27 1    
    50   25   87 1    
    51   26   88 1    
    52   26   89 1    
    53   26   90 1    
    54   27   28 am   BACKBONE|DICT|INTERRES
    55   27   91 1    
    56   28   29 2    
    57   28   30 1    
    58   30   31 1    
    59   30   32 1    
    60   30   92 1    
    61   31   93 1    
    62   31   94 1    
    63   31   95 1    
    64   32   33 am   BACKBONE|DICT|INTERRES
    65   32   96 1    
    66   33   34 2    
    67   33   35 1    
    68   35   36 1    
    69   35   37 1    
    70   35   97 1    
    71   36   98 1    
    72   36   99 1    
    73   36  100 1    
    74   37   38 am   BACKBONE|DICT|INTERRES
    75   37  101 1    
    76   38   39 2    
    77   38   40 1    
    78   40   41 1    
    79   40   42 1    
    80   40  102 1    
    81   41  103 1    
    82   41  104 1    
    83   41  105 1    
    84   42   43 am   BACKBONE|DICT|INTERRES
    85   42  106 1    
    86   43   44 2    
    87   43   45 1    
    88   45   46 1    
    89   45   49 1    
    90   45  107 1    
    91   46   47 1    
    92   46  108 1    
    93   46  109 1    
    94   47   48 1    
    95   48  110 1    
    96   48  111 1    
    97   49   50 am   BACKBONE|DICT|INTERRES
    98   49  112 1    
    99   50   51 2    
   100   50   52 1    
   101   52   53 1    
   102   52   54 1    
   103   52  113 1    
   104   53  114 1    
   105   53  115 1    
   106   53  116 1    
   107   54   55 am   BACKBONE|DICT|INTERRES
   108   54  117 1    
   109   55   56 2    
   110   55   57 1    
   111   57   58 1    
   112   57   59 1    
   113   57  118 1    
   114   58  119 1    
   115   58  120 1    
   116   58  121 1    
   117   59   60 am   BACKBONE|DICT|INTERRES
   118   59  122 1    
   119   60   61 2    
   120   60   62 1    
   121   62   63 1    
   122   62   64 1    
   123   62  123 1    
   124   63  124 1    
   125   63  125 1    
   126   63  126 1    
   127   64   65 am   BACKBONE|DICT|INTERRES
   128   64  127 1    
   129   65   66 2    
@<TRIPOS>SUBSTRUCTURE
     1 UNK         1 GROUP             0       ****    0 ROOT    
