@<TRIPOS>MOLECULE
3R135
127   129    1
SMALL
USER_CHARGES


@<TRIPOS>ATOM
      1 CA        -82.8090   28.5241  -77.5548 C.3       0 UNK        -0.1998 
      2 C         -82.1655   27.7713  -76.4010 C.2       0 UNK         0.4909 
      3 O         -81.4884   26.7670  -76.6248 O.2       0 UNK        -0.5240 
      4 N         -82.3617   28.2487  -75.1644 N.am      1 UNK        -0.4739 
      5 CA        -81.8343   27.6343  -73.9415 C.3       1 UNK         0.0864 
      6 C6        -82.0671   28.5250  -72.6951 C.3       11 UNK        -0.0881 
      7 S7        -81.2519   30.1697  -72.7007 S.3       11 UNK        -0.2682 
      8 C8        -79.7334   30.0195  -73.7142 C.3       11 UNK         0.0289 
      9 C9        -78.5354   29.4328  -72.9665 C.ar      11 UNK        -0.0687 
     10 C10       -78.6256   28.2225  -72.2707 C.ar      11 UNK        -0.0823 
     11 C11       -77.5182   27.6851  -71.6124 C.ar      11 UNK        -0.0830 
     12 C12       -76.2956   28.3584  -71.6640 C.ar      11 UNK        -0.1021 
     13 C13       -76.1832   29.5707  -72.3523 C.ar      11 UNK        -0.0753 
     14 C14       -77.3077   30.1036  -72.9931 C.ar      11 UNK        -0.0933 
     15 C15       -74.8617   30.3278  -72.3520 C.3       11 UNK         0.0166 
     16 S16       -74.2902   30.7614  -74.0265 S.3       11 UNK        -0.2615 
     17 C17       -72.7274   31.6210  -73.6193 C.3       11 UNK        -0.0865 
     18 CA        -71.4737   30.9690  -74.2715 C.3       10 UNK         0.0862 
     19 C         -70.1614   31.7554  -73.9730 C.2       10 UNK         0.5551 
     20 N         -69.0119   31.1013  -73.8588 N.am      10 UNK        -0.7319 
     21 O         -70.1769   32.9800  -73.8726 O.2       10 UNK        -0.5018 
     22 N         -71.3905   29.5150  -74.0494 N.am      10 UNK        -0.4509 
     23 C         -71.2801   28.8849  -72.8710 C.2       10 UNK         0.4899 
     24 O         -71.1532   29.4709  -71.7955 O.2       10 UNK        -0.4839 
     25 CA        -71.3465   27.3437  -72.8794 C.3       9 UNK         0.0222 
     26 CB        -72.3219   26.8262  -71.8070 C.3       9 UNK        -0.1966 
     27 N         -71.7602   26.8150  -74.1822 N.am      9 UNK        -0.4218 
     28 C         -70.9275   26.4198  -75.1542 C.2       9 UNK         0.5020 
     29 O         -69.7028   26.3712  -75.0337 O.2       9 UNK        -0.5274 
     30 CA        -71.5668   26.0595  -76.5069 C.3       8 UNK         0.0270 
     31 CB        -72.1203   24.6268  -76.4793 C.3       8 UNK        -0.1976 
     32 N         -72.6287   26.9859  -76.9133 N.am      8 UNK        -0.4313 
     33 C         -72.4832   28.2999  -77.1283 C.2       8 UNK         0.5041 
     34 O         -71.4062   28.8851  -77.0180 O.2       8 UNK        -0.5577 
     35 CA        -73.7376   29.1219  -77.4836 C.3       7 UNK         0.0284 
     36 CB        -73.9613   29.1714  -79.0075 C.3       7 UNK        -0.1958 
     37 N         -74.9523   28.7173  -76.7599 N.am      7 UNK        -0.4454 
     38 C         -75.6465   27.5775  -76.8673 C.2       7 UNK         0.5089 
     39 O         -75.3866   26.6813  -77.6726 O.2       7 UNK        -0.5125 
     40 CA        -76.7802   27.3760  -75.8507 C.3       6 UNK         0.0408 
     41 CB        -78.1529   27.4175  -76.5366 C.3       6 UNK        -0.1791 
     42 N         -76.6367   26.1119  -75.1277 N.am      6 UNK        -0.4762 
     43 C         -75.5819   25.7692  -74.3730 C.2       6 UNK         0.5007 
     44 O         -74.5859   26.4789  -74.2234 O.2       6 UNK        -0.5032 
     45 CA        -75.6355   24.4037  -73.6635 C.3       5 UNK         0.0783 
     46 C46       -76.0148   24.5519  -72.1696 C.3       11 UNK        -0.0857 
     47 S47       -77.7793   24.9334  -71.8776 S.3       11 UNK        -0.2512 
     48 C48       -77.6720   26.4021  -70.8090 C.3       11 UNK         0.0225 
     49 N         -76.4980   23.4379  -74.3536 N.am      5 UNK        -0.4615 
     50 C         -76.1033   22.6657  -75.3729 C.2       4 UNK         0.5053 
     51 O         -74.9729   22.6942  -75.8579 O.2       4 UNK        -0.5105 
     52 CA        -77.1376   21.6756  -75.9307 C.3       4 UNK         0.0263 
     53 CB        -77.2194   20.4224  -75.0440 C.3       4 UNK        -0.1981 
     54 N         -78.4747   22.2532  -76.0788 N.am      4 UNK        -0.4224 
     55 C         -78.8199   23.1679  -76.9924 C.2       3 UNK         0.4895 
     56 O         -78.0258   23.6729  -77.7850 O.2       3 UNK        -0.5091 
     57 CA        -80.3001   23.5846  -77.0540 C.3       3 UNK         0.0250 
     58 CB        -81.1417   22.5358  -77.8071 C.3       3 UNK        -0.1996 
     59 N         -80.9059   23.9359  -75.7613 N.am      3 UNK        -0.4254 
     60 C         -81.1547   23.1551  -74.6956 C.2       2 UNK         0.5004 
     61 O         -80.8669   21.9579  -74.6502 O.2       2 UNK        -0.5226 
     62 CA        -81.7979   23.8239  -73.4631 C.3       2 UNK         0.0269 
     63 CB        -81.3029   23.1991  -72.1454 C.3       2 UNK        -0.1926 
     64 N         -81.5181   25.2621  -73.4462 N.am      2 UNK        -0.4687 
     65 C         -82.4092   26.2180  -73.7377 C.2       1 UNK         0.5165 
     66 O         -83.6177   26.0187  -73.8809 O.2       1 UNK        -0.5079 
     67 H67       -83.4991   27.8711  -78.0884 H         1 UNK         0.0900 
     68 H68       -82.0444   28.8584  -78.2556 H         1 UNK         0.0900 
     69 H69       -83.3627   29.3983  -77.2128 H         1 UNK         0.0900 
     70 H70       -82.9382   29.0669  -75.0295 H         1 UNK         0.2959 
     71 H71       -80.7640   27.5070  -74.0955 H         1 UNK         0.1079 
     72 H72       -81.7466   28.0082  -71.7887 H         1 UNK         0.0837 
     73 H73       -83.1374   28.6933  -72.5599 H         1 UNK         0.0837 
     74 H74       -79.9116   29.4657  -74.6340 H         1 UNK         0.0685 
     75 H75       -79.4878   31.0300  -74.0442 H         1 UNK         0.0685 
     76 H76       -79.5584   27.6891  -72.2155 H         1 UNK         0.1434 
     77 H77       -75.4386   27.9497  -71.1477 H         1 UNK         0.1329 
     78 H78       -77.2198   31.0449  -73.5182 H         1 UNK         0.1335 
     79 H79       -74.9827   31.2407  -71.7674 H         1 UNK         0.0680 
     80 H80       -74.0850   29.7416  -71.8586 H         1 UNK         0.0680 
     81 H81       -72.6007   31.6735  -72.5367 H         1 UNK         0.1032 
     82 H82       -72.8291   32.6551  -73.9533 H         1 UNK         0.1032 
     83 H83       -71.6012   31.0726  -75.3492 H         1 UNK         0.0461 
     84 H84       -68.1643   31.6148  -73.6758 H         1 UNK         0.3453 
     85 H85       -68.9881   30.0984  -73.9519 H         1 UNK         0.3453 
     86 H86       -71.4306   28.9593  -74.8948 H         1 UNK         0.2984 
     87 H87       -70.3492   26.9760  -72.6307 H         1 UNK         0.0554 
     88 H88       -72.3809   25.7378  -71.8146 H         1 UNK         0.0847 
     89 H89       -73.3275   27.2168  -71.9608 H         1 UNK         0.0847 
     90 H90       -72.0050   27.1256  -70.8072 H         1 UNK         0.0847 
     91 H91       -72.7648   26.8019  -74.3572 H         1 UNK         0.3141 
     92 H92       -70.7835   26.1091  -77.2660 H         1 UNK         0.0743 
     93 H93       -72.9249   24.5204  -75.7512 H         1 UNK         0.0784 
     94 H94       -72.5116   24.3311  -77.4530 H         1 UNK         0.0784 
     95 H95       -71.3417   23.9111  -76.2119 H         1 UNK         0.0784 
     96 H96       -73.5575   26.5981  -77.0563 H         1 UNK         0.3213 
     97 H97       -73.5357   30.1427  -77.1540 H         1 UNK         0.0855 
     98 H98       -73.0901   29.5916  -79.5118 H         1 UNK         0.0814 
     99 H99       -74.8164   29.7971  -79.2629 H         1 UNK         0.0814 
    100 H100      -74.1304   28.1814  -79.4316 H         1 UNK         0.0814 
    101 H101      -75.2150   29.3455  -76.0106 H         1 UNK         0.3105 
    102 H102      -76.7416   28.1787  -75.1120 H         1 UNK         0.0547 
    103 H103      -78.3008   28.3620  -77.0615 H         1 UNK         0.0837 
    104 H104      -78.2644   26.6157  -77.2682 H         1 UNK         0.0837 
    105 H105      -78.9582   27.3223  -75.8099 H         1 UNK         0.0837 
    106 H106      -77.3765   25.4367  -75.2392 H         1 UNK         0.3020 
    107 H107      -74.6119   24.0217  -73.6896 H         1 UNK         0.1245 
    108 H108      -75.3817   25.3004  -71.6892 H         1 UNK         0.0781 
    109 H109      -75.7970   23.6168  -71.6515 H         1 UNK         0.0781 
    110 H110      -76.8582   26.2857  -70.0916 H         1 UNK         0.0836 
    111 H111      -78.5846   26.4636  -70.2141 H         1 UNK         0.0836 
    112 H112      -77.4357   23.3399  -73.9930 H         1 UNK         0.3022 
    113 H113      -76.7951   21.3667  -76.9208 H         1 UNK         0.0747 
    114 H114      -77.8762   19.6704  -75.4818 H         1 UNK         0.0793 
    115 H115      -76.2370   19.9632  -74.9247 H         1 UNK         0.0793 
    116 H116      -77.5954   20.6547  -74.0467 H         1 UNK         0.0793 
    117 H117      -79.2140   21.9034  -75.4721 H         1 UNK         0.3047 
    118 H118      -80.3326   24.5029  -77.6430 H         1 UNK         0.0822 
    119 H119      -82.1704   22.8729  -77.9350 H         1 UNK         0.0807 
    120 H120      -81.1652   21.5771  -77.2882 H         1 UNK         0.0807 
    121 H121      -80.7349   22.3539  -78.8028 H         1 UNK         0.0807 
    122 H122      -81.1799   24.9114  -75.7021 H         1 UNK         0.2946 
    123 H123      -82.8728   23.6435  -73.5378 H         1 UNK         0.1144 
    124 H124      -81.7336   23.7033  -71.2803 H         1 UNK         0.0793 
    125 H125      -80.2179   23.2469  -72.0564 H         1 UNK         0.0793 
    126 H126      -81.5875   22.1481  -72.0792 H         1 UNK         0.0793 
    127 H127      -80.5458   25.5119  -73.3310 H         1 UNK         0.2896 
@<TRIPOS>BOND
     1    1    2 1    
     2    1   67 1    
     3    1   68 1    
     4    1   69 1    
     5    2    3 2    
     6    2    4 am   BACKBONE|DICT|INTERRES
     7    4    5 1    
     8    4   70 1    
     9    5    6 1    
    10    5   65 1    
    11    5   71 1    
    12    6    7 1    
    13    6   72 1    
    14    6   73 1    
    15    7    8 1    
    16    8    9 1    
    17    8   74 1    
    18    8   75 1    
    19    9   10 ar   
    20    9   14 ar   
    21   10   11 ar   
    22   10   76 1    
    23   11   12 ar   
    24   11   48 1    
    25   12   13 ar   
    26   12   77 1    
    27   13   14 ar   
    28   13   15 1    
    29   14   78 1    
    30   15   16 1    
    31   15   79 1    
    32   15   80 1    
    33   16   17 1    
    34   17   18 1    
    35   17   81 1    
    36   17   82 1    
    37   18   19 1    
    38   18   22 1    
    39   18   83 1    
    40   19   20 am   BACKBONE|DICT|INTERRES
    41   19   21 2    
    42   20   84 1    
    43   20   85 1    
    44   22   23 am   BACKBONE|DICT|INTERRES
    45   22   86 1    
    46   23   24 2    
    47   23   25 1    
    48   25   26 1    
    49   25   27 1    
    50   25   87 1    
    51   26   88 1    
    52   26   89 1    
    53   26   90 1    
    54   27   28 am   BACKBONE|DICT|INTERRES
    55   27   91 1    
    56   28   29 2    
    57   28   30 1    
    58   30   31 1    
    59   30   32 1    
    60   30   92 1    
    61   31   93 1    
    62   31   94 1    
    63   31   95 1    
    64   32   33 am   BACKBONE|DICT|INTERRES
    65   32   96 1    
    66   33   34 2    
    67   33   35 1    
    68   35   36 1    
    69   35   37 1    
    70   35   97 1    
    71   36   98 1    
    72   36   99 1    
    73   36  100 1    
    74   37   38 am   BACKBONE|DICT|INTERRES
    75   37  101 1    
    76   38   39 2    
    77   38   40 1    
    78   40   41 1    
    79   40   42 1    
    80   40  102 1    
    81   41  103 1    
    82   41  104 1    
    83   41  105 1    
    84   42   43 am   BACKBONE|DICT|INTERRES
    85   42  106 1    
    86   43   44 2    
    87   43   45 1    
    88   45   46 1    
    89   45   49 1    
    90   45  107 1    
    91   46   47 1    
    92   46  108 1    
    93   46  109 1    
    94   47   48 1    
    95   48  110 1    
    96   48  111 1    
    97   49   50 am   BACKBONE|DICT|INTERRES
    98   49  112 1    
    99   50   51 2    
   100   50   52 1    
   101   52   53 1    
   102   52   54 1    
   103   52  113 1    
   104   53  114 1    
   105   53  115 1    
   106   53  116 1    
   107   54   55 am   BACKBONE|DICT|INTERRES
   108   54  117 1    
   109   55   56 2    
   110   55   57 1    
   111   57   58 1    
   112   57   59 1    
   113   57  118 1    
   114   58  119 1    
   115   58  120 1    
   116   58  121 1    
   117   59   60 am   BACKBONE|DICT|INTERRES
   118   59  122 1    
   119   60   61 2    
   120   60   62 1    
   121   62   63 1    
   122   62   64 1    
   123   62  123 1    
   124   63  124 1    
   125   63  125 1    
   126   63  126 1    
   127   64   65 am   BACKBONE|DICT|INTERRES
   128   64  127 1    
   129   65   66 2    
@<TRIPOS>SUBSTRUCTURE
     1 UNK         1 GROUP             0       ****    0 ROOT    
