@<TRIPOS>MOLECULE
3R135
127   129    1
SMALL
USER_CHARGES


@<TRIPOS>ATOM
      1 CA        -84.6649   29.1683  -73.7467 C.3       0 UNK        -0.1998 
      2 C         -83.7407   28.0097  -73.4033 C.2       0 UNK         0.4909 
      3 O         -84.2223   26.9182  -73.0995 O.2       0 UNK        -0.5240 
      4 N         -82.4208   28.2448  -73.4580 N.am      1 UNK        -0.4739 
      5 CA        -81.3459   27.2844  -73.1482 C.3       1 UNK         0.0864 
      6 C6        -81.3255   26.8271  -71.6618 C.3       11 UNK        -0.0881 
      7 S7        -81.2423   28.2280  -70.4937 S.3       11 UNK        -0.2682 
      8 C8        -79.5238   28.1195  -69.8825 C.3       11 UNK         0.0289 
      9 C9        -78.4404   28.4767  -70.9021 C.ar      11 UNK        -0.0687 
     10 C10       -78.6603   29.3999  -71.9336 C.ar      11 UNK        -0.0823 
     11 C11       -77.6411   29.7298  -72.8332 C.ar      11 UNK        -0.0830 
     12 C12       -76.3730   29.1685  -72.6598 C.ar      11 UNK        -0.1021 
     13 C13       -76.1355   28.2482  -71.6372 C.ar      11 UNK        -0.0753 
     14 C14       -77.1726   27.9011  -70.7675 C.ar      11 UNK        -0.0933 
     15 C15       -74.7547   27.6359  -71.4777 C.3       11 UNK         0.0166 
     16 S16       -73.7382   28.6243  -70.3400 S.3       11 UNK        -0.2615 
     17 C17       -72.0623   28.0434  -70.7708 C.3       11 UNK        -0.0865 
     18 CA        -71.2996   29.0641  -71.6573 C.3       10 UNK         0.0862 
     19 C         -69.8001   28.6737  -71.8121 C.2       10 UNK         0.5551 
     20 N         -69.2745   28.5032  -73.0193 N.am      10 UNK        -0.7319 
     21 O         -69.0964   28.5341  -70.8147 O.2       10 UNK        -0.5018 
     22 N         -71.9973   29.2954  -72.9328 N.am      10 UNK        -0.4509 
     23 C         -71.9591   30.4217  -73.6502 C.2       10 UNK         0.4899 
     24 O         -71.3314   31.4280  -73.3170 O.2       10 UNK        -0.4839 
     25 CA        -72.7386   30.3955  -74.9801 C.3       9 UNK         0.0222 
     26 CB        -72.8173   31.7797  -75.6502 C.3       9 UNK        -0.1966 
     27 N         -72.1621   29.4363  -75.9276 N.am      9 UNK        -0.4218 
     28 C         -72.3142   28.1065  -75.8698 C.2       9 UNK         0.5020 
     29 O         -72.9560   27.5435  -74.9818 O.2       9 UNK        -0.5274 
     30 CA        -71.5930   27.3024  -76.9677 C.3       8 UNK         0.0270 
     31 CB        -70.0985   27.1134  -76.6349 C.3       8 UNK        -0.1976 
     32 N         -72.2491   26.0265  -77.2823 N.am      8 UNK        -0.4313 
     33 C         -72.3392   24.9002  -76.5589 C.2       8 UNK         0.5041 
     34 O         -71.7452   24.7079  -75.4959 O.2       8 UNK        -0.5577 
     35 CA        -73.2341   23.7816  -77.1458 C.3       7 UNK         0.0284 
     36 CB        -73.4916   22.6446  -76.1389 C.3       7 UNK        -0.1958 
     37 N         -74.5285   24.2773  -77.6278 N.am      7 UNK        -0.4454 
     38 C         -74.7387   24.9483  -78.7689 C.2       7 UNK         0.5089 
     39 O         -73.8533   25.1819  -79.5919 O.2       7 UNK        -0.5125 
     40 CA        -76.1469   25.5277  -78.9879 C.3       6 UNK         0.0408 
     41 CB        -77.0829   24.4697  -79.5899 C.3       6 UNK        -0.1791 
     42 N         -76.7225   26.0623  -77.7504 N.am      6 UNK        -0.4762 
     43 C         -76.2189   27.1000  -77.0615 C.2       6 UNK         0.5007 
     44 O         -75.2776   27.7842  -77.4638 O.2       6 UNK        -0.5032 
     45 CA        -76.8521   27.4095  -75.6911 C.3       5 UNK         0.0783 
     46 C46       -77.9554   28.4969  -75.7878 C.3       11 UNK        -0.0857 
     47 S47       -77.2590   30.1743  -75.5945 S.3       11 UNK        -0.2512 
     48 C48       -77.9198   30.7068  -73.9737 C.3       11 UNK         0.0225 
     49 N         -77.3462   26.1879  -75.0508 N.am      5 UNK        -0.4615 
     50 C         -76.5933   25.3789  -74.2916 C.2       4 UNK         0.5053 
     51 O         -75.4155   25.5903  -74.0166 O.2       4 UNK        -0.5105 
     52 CA        -77.2565   24.1024  -73.7509 C.3       4 UNK         0.0263 
     53 CB        -77.8696   24.3685  -72.3674 C.3       4 UNK        -0.1981 
     54 N         -78.2735   23.5620  -74.6562 N.am      4 UNK        -0.4224 
     55 C         -77.9901   23.0134  -75.8482 C.2       3 UNK         0.4895 
     56 O         -76.8468   22.8893  -76.2875 O.2       3 UNK        -0.5091 
     57 CA        -79.1753   22.5684  -76.7240 C.3       3 UNK         0.0250 
     58 CB        -79.5338   21.1027  -76.4329 C.3       3 UNK        -0.1996 
     59 N         -80.3746   23.3991  -76.5850 N.am      3 UNK        -0.4254 
     60 C         -80.4337   24.7258  -76.7681 C.2       2 UNK         0.5004 
     61 O         -79.4609   25.4193  -77.0705 O.2       2 UNK        -0.5226 
     62 CA        -81.7866   25.4163  -76.5182 C.3       2 UNK         0.0269 
     63 CB        -82.9705   24.4439  -76.3095 C.3       2 UNK        -0.1926 
     64 N         -81.7058   26.3600  -75.3972 N.am      2 UNK        -0.4687 
     65 C         -81.3042   26.0996  -74.1413 C.2       1 UNK         0.5165 
     66 O         -80.9034   24.9942  -73.7688 O.2       1 UNK        -0.5079 
     67 H67       -85.3131   29.3933  -72.9002 H         1 UNK         0.0900 
     68 H68       -84.1113   30.0726  -73.9987 H         1 UNK         0.0900 
     69 H69       -85.2937   28.9073  -74.5975 H         1 UNK         0.0900 
     70 H70       -82.1063   29.1712  -73.7112 H         1 UNK         0.2959 
     71 H71       -80.4125   27.8150  -73.3302 H         1 UNK         0.1079 
     72 H72       -82.2170   26.2424  -71.4299 H         1 UNK         0.0837 
     73 H73       -80.4809   26.1648  -71.4702 H         1 UNK         0.0837 
     74 H74       -79.4224   28.7962  -69.0332 H         1 UNK         0.0685 
     75 H75       -79.3590   27.1136  -69.4928 H         1 UNK         0.0685 
     76 H76       -79.6292   29.8672  -72.0388 H         1 UNK         0.1434 
     77 H77       -75.5692   29.4383  -73.3297 H         1 UNK         0.1329 
     78 H78       -76.9824   27.1965  -69.9694 H         1 UNK         0.1335 
     79 H79       -74.2682   27.5733  -72.4523 H         1 UNK         0.0680 
     80 H80       -74.8315   26.6126  -71.1072 H         1 UNK         0.0680 
     81 H81       -71.5289   27.8790  -69.8325 H         1 UNK         0.1032 
     82 H82       -72.1150   27.0687  -71.2599 H         1 UNK         0.1032 
     83 H83       -71.2903   30.0112  -71.1142 H         1 UNK         0.0461 
     84 H84       -68.3012   28.2562  -73.1049 H         1 UNK         0.3453 
     85 H85       -69.8423   28.6285  -73.8401 H         1 UNK         0.3453 
     86 H86       -72.4786   28.4991  -73.3416 H         1 UNK         0.2984 
     87 H87       -73.7610   30.0865  -74.7531 H         1 UNK         0.0554 
     88 H88       -73.2652   32.5127  -74.9778 H         1 UNK         0.0847 
     89 H89       -73.4343   31.7502  -76.5486 H         1 UNK         0.0847 
     90 H90       -71.8316   32.1534  -75.9300 H         1 UNK         0.0847 
     91 H91       -71.5926   29.8261  -76.6653 H         1 UNK         0.3141 
     92 H92       -71.6578   27.8856  -77.8878 H         1 UNK         0.0743 
     93 H93       -69.5873   28.0743  -76.5686 H         1 UNK         0.0784 
     94 H94       -69.9541   26.6069  -75.6800 H         1 UNK         0.0784 
     95 H95       -69.5911   26.5305  -77.4036 H         1 UNK         0.0784 
     96 H96       -72.7868   26.0302  -78.1437 H         1 UNK         0.3213 
     97 H97       -72.6920   23.3565  -77.9931 H         1 UNK         0.0855 
     98 H98       -74.0131   23.0086  -75.2523 H         1 UNK         0.0814 
     99 H99       -72.5566   22.1909  -75.8077 H         1 UNK         0.0814 
    100 H100      -74.0964   21.8520  -76.5799 H         1 UNK         0.0814 
    101 H101      -75.3240   24.1102  -77.0200 H         1 UNK         0.3105 
    102 H102      -76.0668   26.3536  -79.6976 H         1 UNK         0.0547 
    103 H103      -78.0979   24.8503  -79.7055 H         1 UNK         0.0837 
    104 H104      -76.7351   24.1643  -80.5775 H         1 UNK         0.0837 
    105 H105      -77.1252   23.5727  -78.9733 H         1 UNK         0.0837 
    106 H106      -77.5647   25.6135  -77.4011 H         1 UNK         0.3020 
    107 H107      -76.0384   27.7942  -75.0717 H         1 UNK         0.1245 
    108 H108      -78.7066   28.3486  -75.0119 H         1 UNK         0.0781 
    109 H109      -78.5032   28.4382  -76.7307 H         1 UNK         0.0781 
    110 H110      -78.9928   30.8725  -74.0824 H         1 UNK         0.0836 
    111 H111      -77.4847   31.6740  -73.7192 H         1 UNK         0.0836 
    112 H112      -78.2835   25.8980  -75.2975 H         1 UNK         0.3022 
    113 H113      -76.4765   23.3463  -73.6359 H         1 UNK         0.0747 
    114 H114      -77.0994   24.6655  -71.6541 H         1 UNK         0.0793 
    115 H115      -78.6005   25.1751  -72.4024 H         1 UNK         0.0793 
    116 H116      -78.3606   23.4815  -71.9673 H         1 UNK         0.0793 
    117 H117      -79.2429   23.6806  -74.3829 H         1 UNK         0.3047 
    118 H118      -78.8581   22.6369  -77.7652 H         1 UNK         0.0822 
    119 H119      -78.6624   20.4570  -76.5528 H         1 UNK         0.0807 
    120 H120      -80.3006   20.7372  -77.1163 H         1 UNK         0.0807 
    121 H121      -79.8996   20.9706  -75.4138 H         1 UNK         0.0807 
    122 H122      -81.2204   22.9249  -76.3035 H         1 UNK         0.2946 
    123 H123      -81.9921   26.0037  -77.4146 H         1 UNK         0.1144 
    124 H124      -83.9079   24.9919  -76.2119 H         1 UNK         0.0793 
    125 H125      -82.8565   23.8368  -75.4105 H         1 UNK         0.0793 
    126 H126      -83.0860   23.7697  -77.1595 H         1 UNK         0.0793 
    127 H127      -81.9935   27.3063  -75.6036 H         1 UNK         0.2896 
@<TRIPOS>BOND
     1    1    2 1    
     2    1   67 1    
     3    1   68 1    
     4    1   69 1    
     5    2    3 2    
     6    2    4 am   BACKBONE|DICT|INTERRES
     7    4    5 1    
     8    4   70 1    
     9    5    6 1    
    10    5   65 1    
    11    5   71 1    
    12    6    7 1    
    13    6   72 1    
    14    6   73 1    
    15    7    8 1    
    16    8    9 1    
    17    8   74 1    
    18    8   75 1    
    19    9   10 ar   
    20    9   14 ar   
    21   10   11 ar   
    22   10   76 1    
    23   11   12 ar   
    24   11   48 1    
    25   12   13 ar   
    26   12   77 1    
    27   13   14 ar   
    28   13   15 1    
    29   14   78 1    
    30   15   16 1    
    31   15   79 1    
    32   15   80 1    
    33   16   17 1    
    34   17   18 1    
    35   17   81 1    
    36   17   82 1    
    37   18   19 1    
    38   18   22 1    
    39   18   83 1    
    40   19   20 am   BACKBONE|DICT|INTERRES
    41   19   21 2    
    42   20   84 1    
    43   20   85 1    
    44   22   23 am   BACKBONE|DICT|INTERRES
    45   22   86 1    
    46   23   24 2    
    47   23   25 1    
    48   25   26 1    
    49   25   27 1    
    50   25   87 1    
    51   26   88 1    
    52   26   89 1    
    53   26   90 1    
    54   27   28 am   BACKBONE|DICT|INTERRES
    55   27   91 1    
    56   28   29 2    
    57   28   30 1    
    58   30   31 1    
    59   30   32 1    
    60   30   92 1    
    61   31   93 1    
    62   31   94 1    
    63   31   95 1    
    64   32   33 am   BACKBONE|DICT|INTERRES
    65   32   96 1    
    66   33   34 2    
    67   33   35 1    
    68   35   36 1    
    69   35   37 1    
    70   35   97 1    
    71   36   98 1    
    72   36   99 1    
    73   36  100 1    
    74   37   38 am   BACKBONE|DICT|INTERRES
    75   37  101 1    
    76   38   39 2    
    77   38   40 1    
    78   40   41 1    
    79   40   42 1    
    80   40  102 1    
    81   41  103 1    
    82   41  104 1    
    83   41  105 1    
    84   42   43 am   BACKBONE|DICT|INTERRES
    85   42  106 1    
    86   43   44 2    
    87   43   45 1    
    88   45   46 1    
    89   45   49 1    
    90   45  107 1    
    91   46   47 1    
    92   46  108 1    
    93   46  109 1    
    94   47   48 1    
    95   48  110 1    
    96   48  111 1    
    97   49   50 am   BACKBONE|DICT|INTERRES
    98   49  112 1    
    99   50   51 2    
   100   50   52 1    
   101   52   53 1    
   102   52   54 1    
   103   52  113 1    
   104   53  114 1    
   105   53  115 1    
   106   53  116 1    
   107   54   55 am   BACKBONE|DICT|INTERRES
   108   54  117 1    
   109   55   56 2    
   110   55   57 1    
   111   57   58 1    
   112   57   59 1    
   113   57  118 1    
   114   58  119 1    
   115   58  120 1    
   116   58  121 1    
   117   59   60 am   BACKBONE|DICT|INTERRES
   118   59  122 1    
   119   60   61 2    
   120   60   62 1    
   121   62   63 1    
   122   62   64 1    
   123   62  123 1    
   124   63  124 1    
   125   63  125 1    
   126   63  126 1    
   127   64   65 am   BACKBONE|DICT|INTERRES
   128   64  127 1    
   129   65   66 2    
@<TRIPOS>SUBSTRUCTURE
     1 UNK         1 GROUP             0       ****    0 ROOT    
