@<TRIPOS>MOLECULE
3R135
127   129    1
SMALL
USER_CHARGES


@<TRIPOS>ATOM
      1 CA        -77.0292   30.5572  -75.7687 C.3       0 UNK        -0.1998 
      2 C         -78.4477   30.1747  -75.3734 C.2       0 UNK         0.4909 
      3 O         -79.3972   30.7205  -75.9340 O.2       0 UNK        -0.5240 
      4 N         -78.5782   29.2561  -74.4063 N.am      1 UNK        -0.4739 
      5 CA        -79.8188   28.6796  -73.8738 C.3       1 UNK         0.0864 
      6 C6        -80.8133   29.7353  -73.3156 C.3       11 UNK        -0.0881 
      7 S7        -81.9805   29.0078  -72.1116 S.3       11 UNK        -0.2682 
      8 C8        -81.2592   29.5128  -70.5150 C.3       11 UNK         0.0289 
      9 C9        -79.8286   29.0190  -70.3546 C.ar      11 UNK        -0.0687 
     10 C10       -79.5658   27.6542  -70.1960 C.ar      11 UNK        -0.0823 
     11 C11       -78.2498   27.1878  -70.1088 C.ar      11 UNK        -0.0830 
     12 C12       -77.1972   28.1096  -70.1312 C.ar      11 UNK        -0.1021 
     13 C13       -77.4476   29.4707  -70.3152 C.ar      11 UNK        -0.0753 
     14 C14       -78.7647   29.9237  -70.4114 C.ar      11 UNK        -0.0933 
     15 C15       -76.2889   30.4362  -70.4797 C.3       11 UNK         0.0166 
     16 S16       -75.9279   30.6696  -72.2482 S.3       11 UNK        -0.2615 
     17 C17       -74.1508   31.0858  -72.2085 C.3       11 UNK        -0.0865 
     18 CA        -73.2262   29.9420  -72.7161 C.3       10 UNK         0.0862 
     19 C         -73.2331   28.6792  -71.8128 C.2       10 UNK         0.5551 
     20 N         -72.8188   28.8115  -70.5598 N.am      10 UNK        -0.7319 
     21 O         -73.6012   27.5835  -72.2304 O.2       10 UNK        -0.5018 
     22 N         -73.4680   29.5953  -74.1209 N.am      10 UNK        -0.4509 
     23 C         -73.0348   30.2908  -75.1769 C.2       10 UNK         0.4899 
     24 O         -72.4490   31.3718  -75.0926 O.2       10 UNK        -0.4839 
     25 CA        -73.2788   29.6450  -76.5547 C.3       9 UNK         0.0222 
     26 CB        -72.6086   30.4071  -77.7170 C.3       9 UNK        -0.1966 
     27 N         -72.9050   28.2266  -76.5679 N.am      9 UNK        -0.4218 
     28 C         -71.6961   27.6924  -76.3334 C.2       9 UNK         0.5020 
     29 O         -70.6730   28.3506  -76.1396 O.2       9 UNK        -0.5274 
     30 CA        -71.6078   26.1561  -76.2809 C.3       8 UNK         0.0270 
     31 CB        -71.5842   25.6823  -74.8184 C.3       8 UNK        -0.1976 
     32 N         -72.7010   25.4822  -76.9883 N.am      8 UNK        -0.4313 
     33 C         -72.8232   25.4266  -78.3223 C.2       8 UNK         0.5041 
     34 O         -71.9873   25.8782  -79.1062 O.2       8 UNK        -0.5577 
     35 CA        -74.1088   24.7873  -78.8764 C.3       7 UNK         0.0284 
     36 CB        -74.0181   23.2535  -78.8426 C.3       7 UNK        -0.1958 
     37 N         -75.3141   25.2289  -78.1686 N.am      7 UNK        -0.4454 
     38 C         -75.7705   26.4903  -78.1519 C.2       7 UNK         0.5089 
     39 O         -75.2479   27.4211  -78.7632 O.2       7 UNK        -0.5125 
     40 CA        -76.9941   26.7716  -77.2677 C.3       6 UNK         0.0408 
     41 CB        -78.2952   26.4087  -77.9979 C.3       6 UNK        -0.1791 
     42 N         -76.9061   26.0679  -75.9862 N.am      6 UNK        -0.4762 
     43 C         -76.0699   26.4247  -74.9998 C.2       6 UNK         0.5007 
     44 O         -75.3751   27.4400  -75.0352 O.2       6 UNK        -0.5032 
     45 CA        -75.9688   25.4880  -73.7820 C.3       5 UNK         0.0783 
     46 C46       -76.9365   25.9419  -72.6685 C.3       11 UNK        -0.0857 
     47 S47       -76.5917   25.1162  -71.0785 S.3       11 UNK        -0.2512 
     48 C48       -77.9820   25.6855  -70.0325 C.3       11 UNK         0.0225 
     49 N         -76.1602   24.0834  -74.1554 N.am      5 UNK        -0.4615 
     50 C         -75.2592   23.3686  -74.8426 C.2       4 UNK         0.5053 
     51 O         -74.1838   23.8231  -75.2282 O.2       4 UNK        -0.5105 
     52 CA        -75.6280   21.9203  -75.2053 C.3       4 UNK         0.0263 
     53 CB        -75.2202   20.9646  -74.0734 C.3       4 UNK        -0.1981 
     54 N         -77.0472   21.7351  -75.5148 N.am      4 UNK        -0.4224 
     55 C         -77.7113   22.3626  -76.4953 C.2       3 UNK         0.4895 
     56 O         -77.1860   23.1667  -77.2679 O.2       3 UNK        -0.5091 
     57 CA        -79.2238   22.0870  -76.6163 C.3       3 UNK         0.0250 
     58 CB        -79.7422   20.9705  -75.6802 C.3       3 UNK        -0.1996 
     59 N         -80.0216   23.3064  -76.4314 N.am      3 UNK        -0.4254 
     60 C         -79.9668   24.1503  -75.3906 C.2       2 UNK         0.5004 
     61 O         -79.2006   24.0235  -74.4310 O.2       2 UNK        -0.5226 
     62 CA        -80.9395   25.3328  -75.4213 C.3       2 UNK         0.0269 
     63 CB        -82.3148   24.9242  -74.8667 C.3       2 UNK        -0.1926 
     64 N         -80.3911   26.4113  -74.6030 N.am      2 UNK        -0.4687 
     65 C         -80.4798   27.7158  -74.8833 C.2       1 UNK         0.5165 
     66 O         -81.0613   28.1534  -75.8780 O.2       1 UNK        -0.5079 
     67 H67       -76.8480   31.6086  -75.5475 H         1 UNK         0.0900 
     68 H68       -76.2876   29.9681  -75.2309 H         1 UNK         0.0900 
     69 H69       -76.8790   30.4001  -76.8364 H         1 UNK         0.0900 
     70 H70       -77.7324   28.8915  -73.9910 H         1 UNK         0.2959 
     71 H71       -79.4820   28.0807  -73.0273 H         1 UNK         0.1079 
     72 H72       -80.2690   30.5469  -72.8313 H         1 UNK         0.0837 
     73 H73       -81.3822   30.2062  -74.1194 H         1 UNK         0.0837 
     74 H74       -81.8720   29.1126  -69.7061 H         1 UNK         0.0685 
     75 H75       -81.3086   30.5995  -70.4283 H         1 UNK         0.0685 
     76 H76       -80.3906   26.9545  -70.1780 H         1 UNK         0.1434 
     77 H77       -76.1747   27.7609  -70.0733 H         1 UNK         0.1329 
     78 H78       -78.9568   30.9766  -70.5664 H         1 UNK         0.1335 
     79 H79       -76.5229   31.3992  -70.0234 H         1 UNK         0.0680 
     80 H80       -75.4107   30.0495  -69.9609 H         1 UNK         0.0680 
     81 H81       -73.8629   31.3968  -71.2033 H         1 UNK         0.1032 
     82 H82       -74.0052   31.9714  -72.8283 H         1 UNK         0.1032 
     83 H83       -72.1989   30.3085  -72.6655 H         1 UNK         0.0461 
     84 H84       -72.4910   29.6951  -70.2038 H         1 UNK         0.3453 
     85 H85       -72.8124   27.9990  -69.9640 H         1 UNK         0.3453 
     86 H86       -73.9510   28.7124  -74.2650 H         1 UNK         0.2984 
     87 H87       -74.3552   29.6727  -76.7249 H         1 UNK         0.0554 
     88 H88       -72.9776   31.4317  -77.7750 H         1 UNK         0.0847 
     89 H89       -72.8208   29.9315  -78.6747 H         1 UNK         0.0847 
     90 H90       -71.5257   30.4583  -77.5999 H         1 UNK         0.0847 
     91 H91       -73.6801   27.5857  -76.6739 H         1 UNK         0.3141 
     92 H92       -70.6660   25.8641  -76.7502 H         1 UNK         0.0743 
     93 H93       -70.7593   26.1399  -74.2707 H         1 UNK         0.0784 
     94 H94       -72.5057   25.9439  -74.2963 H         1 UNK         0.0784 
     95 H95       -71.4575   24.6015  -74.7524 H         1 UNK         0.0784 
     96 H96       -73.3874   24.9997  -76.4097 H         1 UNK         0.3213 
     97 H97       -74.2092   25.0975  -79.9188 H         1 UNK         0.0855 
     98 H98       -73.8970   22.8772  -77.8271 H         1 UNK         0.0814 
     99 H99       -73.1641   22.9020  -79.4231 H         1 UNK         0.0814 
    100 H100      -74.9109   22.7927  -79.2662 H         1 UNK         0.0814 
    101 H101      -75.8532   24.5146  -77.6857 H         1 UNK         0.3105 
    102 H102      -77.0175   27.8448  -77.0696 H         1 UNK         0.0547 
    103 H103      -78.3903   25.3361  -78.1647 H         1 UNK         0.0837 
    104 H104      -78.3399   26.8933  -78.9742 H         1 UNK         0.0837 
    105 H105      -79.1653   26.7464  -77.4389 H         1 UNK         0.0837 
    106 H106      -77.4066   25.1933  -75.9004 H         1 UNK         0.3020 
    107 H107      -74.9500   25.5947  -73.4013 H         1 UNK         0.1245 
    108 H108      -77.9747   25.7634  -72.9461 H         1 UNK         0.0781 
    109 H109      -76.8362   27.0175  -72.5178 H         1 UNK         0.0781 
    110 H110      -77.7763   25.4161  -68.9959 H         1 UNK         0.0836 
    111 H111      -78.8723   25.1267  -70.3253 H         1 UNK         0.0836 
    112 H112      -77.0554   23.6717  -73.9206 H         1 UNK         0.3022 
    113 H113      -75.0615   21.6505  -76.0984 H         1 UNK         0.0747 
    114 H114      -75.3895   19.9240  -74.3509 H         1 UNK         0.0793 
    115 H115      -74.1592   21.0673  -73.8406 H         1 UNK         0.0793 
    116 H116      -75.7756   21.1638  -73.1558 H         1 UNK         0.0793 
    117 H117      -77.5661   21.1124  -74.9130 H         1 UNK         0.3047 
    118 H118      -79.3862   21.7595  -77.6443 H         1 UNK         0.0822 
    119 H119      -80.7979   20.7703  -75.8644 H         1 UNK         0.0807 
    120 H120      -79.6417   21.2336  -74.6263 H         1 UNK         0.0807 
    121 H121      -79.2114   20.0320  -75.8467 H         1 UNK         0.0807 
    122 H122      -80.6689   23.5116  -77.1800 H         1 UNK         0.2946 
    123 H123      -81.0516   25.6627  -76.4565 H         1 UNK         0.1144 
    124 H124      -83.0139   25.7606  -74.8880 H         1 UNK         0.0793 
    125 H125      -82.2451   24.5736  -73.8360 H         1 UNK         0.0793 
    126 H126      -82.7549   24.1196  -75.4571 H         1 UNK         0.0793 
    127 H127      -79.8653   26.0919  -73.8005 H         1 UNK         0.2896 
@<TRIPOS>BOND
     1    1    2 1    
     2    1   67 1    
     3    1   68 1    
     4    1   69 1    
     5    2    3 2    
     6    2    4 am   BACKBONE|DICT|INTERRES
     7    4    5 1    
     8    4   70 1    
     9    5    6 1    
    10    5   65 1    
    11    5   71 1    
    12    6    7 1    
    13    6   72 1    
    14    6   73 1    
    15    7    8 1    
    16    8    9 1    
    17    8   74 1    
    18    8   75 1    
    19    9   10 ar   
    20    9   14 ar   
    21   10   11 ar   
    22   10   76 1    
    23   11   12 ar   
    24   11   48 1    
    25   12   13 ar   
    26   12   77 1    
    27   13   14 ar   
    28   13   15 1    
    29   14   78 1    
    30   15   16 1    
    31   15   79 1    
    32   15   80 1    
    33   16   17 1    
    34   17   18 1    
    35   17   81 1    
    36   17   82 1    
    37   18   19 1    
    38   18   22 1    
    39   18   83 1    
    40   19   20 am   BACKBONE|DICT|INTERRES
    41   19   21 2    
    42   20   84 1    
    43   20   85 1    
    44   22   23 am   BACKBONE|DICT|INTERRES
    45   22   86 1    
    46   23   24 2    
    47   23   25 1    
    48   25   26 1    
    49   25   27 1    
    50   25   87 1    
    51   26   88 1    
    52   26   89 1    
    53   26   90 1    
    54   27   28 am   BACKBONE|DICT|INTERRES
    55   27   91 1    
    56   28   29 2    
    57   28   30 1    
    58   30   31 1    
    59   30   32 1    
    60   30   92 1    
    61   31   93 1    
    62   31   94 1    
    63   31   95 1    
    64   32   33 am   BACKBONE|DICT|INTERRES
    65   32   96 1    
    66   33   34 2    
    67   33   35 1    
    68   35   36 1    
    69   35   37 1    
    70   35   97 1    
    71   36   98 1    
    72   36   99 1    
    73   36  100 1    
    74   37   38 am   BACKBONE|DICT|INTERRES
    75   37  101 1    
    76   38   39 2    
    77   38   40 1    
    78   40   41 1    
    79   40   42 1    
    80   40  102 1    
    81   41  103 1    
    82   41  104 1    
    83   41  105 1    
    84   42   43 am   BACKBONE|DICT|INTERRES
    85   42  106 1    
    86   43   44 2    
    87   43   45 1    
    88   45   46 1    
    89   45   49 1    
    90   45  107 1    
    91   46   47 1    
    92   46  108 1    
    93   46  109 1    
    94   47   48 1    
    95   48  110 1    
    96   48  111 1    
    97   49   50 am   BACKBONE|DICT|INTERRES
    98   49  112 1    
    99   50   51 2    
   100   50   52 1    
   101   52   53 1    
   102   52   54 1    
   103   52  113 1    
   104   53  114 1    
   105   53  115 1    
   106   53  116 1    
   107   54   55 am   BACKBONE|DICT|INTERRES
   108   54  117 1    
   109   55   56 2    
   110   55   57 1    
   111   57   58 1    
   112   57   59 1    
   113   57  118 1    
   114   58  119 1    
   115   58  120 1    
   116   58  121 1    
   117   59   60 am   BACKBONE|DICT|INTERRES
   118   59  122 1    
   119   60   61 2    
   120   60   62 1    
   121   62   63 1    
   122   62   64 1    
   123   62  123 1    
   124   63  124 1    
   125   63  125 1    
   126   63  126 1    
   127   64   65 am   BACKBONE|DICT|INTERRES
   128   64  127 1    
   129   65   66 2    
@<TRIPOS>SUBSTRUCTURE
     1 UNK         1 GROUP             0       ****    0 ROOT    
