@<TRIPOS>MOLECULE
3R135
127   129    1
SMALL
USER_CHARGES


@<TRIPOS>ATOM
      1 CA        -84.9358   29.7149  -74.0928 C.3       0 UNK        -0.1998 
      2 C         -83.9970   29.2694  -75.2038 C.2       0 UNK         0.4909 
      3 O         -84.3398   29.3888  -76.3804 O.2       0 UNK        -0.5240 
      4 N         -82.8159   28.7530  -74.8395 N.am      1 UNK        -0.4739 
      5 CA        -81.7868   28.2802  -75.7776 C.3       1 UNK         0.0864 
      6 C6        -80.3805   28.2629  -75.1322 C.3       11 UNK        -0.0881 
      7 S7        -79.8005   29.9348  -74.6886 S.3       11 UNK        -0.2682 
      8 C8        -79.7819   29.8738  -72.8685 C.3       11 UNK         0.0289 
      9 C9        -78.5748   29.1242  -72.3172 C.ar      11 UNK        -0.0687 
     10 C10       -78.7398   27.9103  -71.6445 C.ar      11 UNK        -0.0823 
     11 C11       -77.6409   27.2581  -71.0769 C.ar      11 UNK        -0.0830 
     12 C12       -76.3663   27.8180  -71.2038 C.ar      11 UNK        -0.1021 
     13 C13       -76.1789   29.0299  -71.8857 C.ar      11 UNK        -0.0753 
     14 C14       -77.2941   29.6739  -72.4330 C.ar      11 UNK        -0.0933 
     15 C15       -74.8126   29.7088  -72.0275 C.3       11 UNK         0.0166 
     16 S16       -73.3666   28.6840  -71.5861 S.3       11 UNK        -0.2615 
     17 C17       -72.0061   29.8961  -71.7143 C.3       11 UNK        -0.0865 
     18 CA        -71.0152   29.6189  -72.8819 C.3       10 UNK         0.0862 
     19 C         -70.0959   28.3912  -72.6229 C.2       10 UNK         0.5551 
     20 N         -69.9650   27.4230  -73.5205 N.am      10 UNK        -0.7319 
     21 O         -69.4458   28.3311  -71.5816 O.2       10 UNK        -0.5018 
     22 N         -71.6556   29.6666  -74.2069 N.am      10 UNK        -0.4509 
     23 C         -72.0620   30.8003  -74.7961 C.2       10 UNK         0.4899 
     24 O         -71.9465   31.9128  -74.2780 O.2       10 UNK        -0.4839 
     25 CA        -72.7151   30.6803  -76.1882 C.3       9 UNK         0.0222 
     26 CB        -72.7912   32.0265  -76.9405 C.3       9 UNK        -0.1966 
     27 N         -72.1021   29.6466  -77.0276 N.am      9 UNK        -0.4218 
     28 C         -70.8228   29.5724  -77.4334 C.2       9 UNK         0.5020 
     29 O         -69.9858   30.4492  -77.2116 O.2       9 UNK        -0.5274 
     30 CA        -70.3956   28.3123  -78.2232 C.3       8 UNK         0.0270 
     31 CB        -68.9654   27.8588  -77.8576 C.3       8 UNK        -0.1976 
     32 N         -71.3331   27.1820  -78.1283 N.am      8 UNK        -0.4313 
     33 C         -71.7203   26.5522  -77.0106 C.2       8 UNK         0.5041 
     34 O         -71.3023   26.8272  -75.8832 O.2       8 UNK        -0.5577 
     35 CA        -72.8206   25.4889  -77.1730 C.3       7 UNK         0.0284 
     36 CB        -72.2367   24.0792  -76.9939 C.3       7 UNK        -0.1958 
     37 N         -73.9141   25.6905  -76.2168 N.am      7 UNK        -0.4454 
     38 C         -74.5991   26.8329  -76.0515 C.2       7 UNK         0.5089 
     39 O         -74.4493   27.8176  -76.7783 O.2       7 UNK        -0.5125 
     40 CA        -75.6204   26.9122  -74.9009 C.3       6 UNK         0.0408 
     41 CB        -76.9665   27.4559  -75.3923 C.3       6 UNK        -0.1791 
     42 N         -75.8625   25.6448  -74.2119 N.am      6 UNK        -0.4762 
     43 C         -75.0645   25.0956  -73.2863 C.2       6 UNK         0.5007 
     44 O         -73.9961   25.5850  -72.9256 O.2       6 UNK        -0.5032 
     45 CA        -75.5066   23.7425  -72.6922 C.3       5 UNK         0.0783 
     46 C46       -76.1491   23.9188  -71.2922 C.3       11 UNK        -0.0857 
     47 S47       -77.8833   24.4998  -71.3313 S.3       11 UNK        -0.2512 
     48 C48       -77.8470   25.9807  -70.2752 C.3       11 UNK         0.0225 
     49 N         -76.3560   22.9534  -73.5942 N.am      5 UNK        -0.4615 
     50 C         -76.0049   22.5107  -74.8088 C.2       4 UNK         0.5053 
     51 O         -74.8867   22.6831  -75.2933 O.2       4 UNK        -0.5105 
     52 CA        -77.0692   21.7620  -75.6320 C.3       4 UNK         0.0263 
     53 CB        -76.7221   20.2665  -75.7186 C.3       4 UNK        -0.1981 
     54 N         -78.4421   21.9038  -75.1314 N.am      4 UNK        -0.4224 
     55 C         -79.1819   23.0187  -75.2019 C.2       3 UNK         0.4895 
     56 O         -78.7713   24.0975  -75.6372 O.2       3 UNK        -0.5091 
     57 CA        -80.6151   22.9057  -74.6710 C.3       3 UNK         0.0250 
     58 CB        -80.6714   23.1818  -73.1582 C.3       3 UNK        -0.1996 
     59 N         -81.4749   23.8497  -75.3794 N.am      3 UNK        -0.4254 
     60 C         -82.8020   23.7330  -75.5094 C.2       2 UNK         0.5004 
     61 O         -83.4471   22.7951  -75.0360 O.2       2 UNK        -0.5226 
     62 CA        -83.5315   24.8557  -76.2722 C.3       2 UNK         0.0269 
     63 CB        -85.0634   24.7741  -76.1261 C.3       2 UNK        -0.1926 
     64 N         -83.0902   26.1789  -75.8245 N.am      2 UNK        -0.4687 
     65 C         -82.1132   26.8998  -76.3904 C.2       1 UNK         0.5165 
     66 O         -81.4611   26.5012  -77.3560 O.2       1 UNK        -0.5079 
     67 H67       -85.1618   30.7758  -74.1965 H         1 UNK         0.0900 
     68 H68       -85.8720   29.1600  -74.1475 H         1 UNK         0.0900 
     69 H69       -84.5040   29.5559  -73.1049 H         1 UNK         0.0900 
     70 H70       -82.5817   28.6885  -73.8596 H         1 UNK         0.2959 
     71 H71       -81.7547   28.9765  -76.6192 H         1 UNK         0.1079 
     72 H72       -79.6566   27.8580  -75.8402 H         1 UNK         0.0837 
     73 H73       -80.3537   27.6057  -74.2610 H         1 UNK         0.0837 
     74 H74       -80.7148   29.4381  -72.5082 H         1 UNK         0.0685 
     75 H75       -79.7609   30.8964  -72.4892 H         1 UNK         0.0685 
     76 H76       -79.7276   27.4832  -71.5375 H         1 UNK         0.1434 
     77 H77       -75.5281   27.3059  -70.7542 H         1 UNK         0.1329 
     78 H78       -77.1689   30.6175  -72.9469 H         1 UNK         0.1335 
     79 H79       -74.8119   30.6014  -71.4006 H         1 UNK         0.0680 
     80 H80       -74.6858   30.0470  -73.0572 H         1 UNK         0.0680 
     81 H81       -71.4745   29.9106  -70.7611 H         1 UNK         0.1032 
     82 H82       -72.4218   30.8992  -71.8150 H         1 UNK         0.1032 
     83 H83       -70.3023   30.4460  -72.8742 H         1 UNK         0.0461 
     84 H84       -69.3441   26.6611  -73.3028 H         1 UNK         0.3453 
     85 H85       -70.4970   27.3794  -74.3875 H         1 UNK         0.3453 
     86 H86       -71.7598   28.7827  -74.6885 H         1 UNK         0.2984 
     87 H87       -73.7393   30.3522  -76.0065 H         1 UNK         0.0554 
     88 H88       -73.3705   32.7582  -76.3761 H         1 UNK         0.0847 
     89 H89       -73.2752   31.9124  -77.9104 H         1 UNK         0.0847 
     90 H90       -71.8023   32.4548  -77.1067 H         1 UNK         0.0847 
     91 H91       -72.7139   28.8630  -77.2338 H         1 UNK         0.3141 
     92 H92       -70.3881   28.6099  -79.2728 H         1 UNK         0.0743 
     93 H93       -68.2372   28.6421  -78.0716 H         1 UNK         0.0784 
     94 H94       -68.8768   27.6154  -76.7982 H         1 UNK         0.0784 
     95 H95       -68.6688   26.9798  -78.4297 H         1 UNK         0.0784 
     96 H96       -71.7585   26.9024  -79.0024 H         1 UNK         0.3213 
     97 H97       -73.2466   25.5640  -78.1754 H         1 UNK         0.0855 
     98 H98       -71.8517   23.9299  -75.9841 H         1 UNK         0.0814 
     99 H99       -71.4129   23.9047  -77.6872 H         1 UNK         0.0814 
    100 H100      -72.9867   23.3113  -77.1839 H         1 UNK         0.0814 
    101 H101      -74.1049   24.9277  -75.5810 H         1 UNK         0.3105 
    102 H102      -75.2161   27.6216  -74.1774 H         1 UNK         0.0547 
    103 H103      -77.4105   26.8087  -76.1497 H         1 UNK         0.0837 
    104 H104      -76.8609   28.4515  -75.8250 H         1 UNK         0.0837 
    105 H105      -77.6682   27.5390  -74.5637 H         1 UNK         0.0837 
    106 H106      -76.7113   25.1529  -74.4595 H         1 UNK         0.3020 
    107 H107      -74.5857   23.1704  -72.5568 H         1 UNK         0.1245 
    108 H108      -75.5412   24.5775  -70.6689 H         1 UNK         0.0781 
    109 H109      -76.1471   22.9569  -70.7775 H         1 UNK         0.0781 
    110 H110      -77.0839   25.8796  -69.5022 H         1 UNK         0.0836 
    111 H111      -78.7966   26.0421  -69.7414 H         1 UNK         0.0836 
    112 H112      -77.2973   22.7846  -73.2716 H         1 UNK         0.3022 
    113 H113      -77.0373   22.1773  -76.6417 H         1 UNK         0.0747 
    114 H114      -77.4129   19.7349  -76.3733 H         1 UNK         0.0793 
    115 H115      -75.7197   20.1200  -76.1241 H         1 UNK         0.0793 
    116 H116      -76.7495   19.7879  -74.7388 H         1 UNK         0.0793 
    117 H117      -78.8598   21.0716  -74.7389 H         1 UNK         0.3047 
    118 H118      -80.9694   21.8908  -74.8656 H         1 UNK         0.0822 
    119 H119      -81.6730   23.0174  -72.7609 H         1 UNK         0.0807 
    120 H120      -80.3897   24.2106  -72.9310 H         1 UNK         0.0807 
    121 H121      -79.9968   22.5244  -72.6086 H         1 UNK         0.0807 
    122 H122      -80.9893   24.6153  -75.8324 H         1 UNK         0.2946 
    123 H123      -83.2939   24.7232  -77.3304 H         1 UNK         0.1144 
    124 H124      -85.5574   25.5662  -76.6892 H         1 UNK         0.0793 
    125 H125      -85.3754   24.8584  -75.0843 H         1 UNK         0.0793 
    126 H126      -85.4442   23.8250  -76.5061 H         1 UNK         0.0793 
    127 H127      -83.5549   26.5629  -75.0143 H         1 UNK         0.2896 
@<TRIPOS>BOND
     1    1    2 1    
     2    1   67 1    
     3    1   68 1    
     4    1   69 1    
     5    2    3 2    
     6    2    4 am   BACKBONE|DICT|INTERRES
     7    4    5 1    
     8    4   70 1    
     9    5    6 1    
    10    5   65 1    
    11    5   71 1    
    12    6    7 1    
    13    6   72 1    
    14    6   73 1    
    15    7    8 1    
    16    8    9 1    
    17    8   74 1    
    18    8   75 1    
    19    9   10 ar   
    20    9   14 ar   
    21   10   11 ar   
    22   10   76 1    
    23   11   12 ar   
    24   11   48 1    
    25   12   13 ar   
    26   12   77 1    
    27   13   14 ar   
    28   13   15 1    
    29   14   78 1    
    30   15   16 1    
    31   15   79 1    
    32   15   80 1    
    33   16   17 1    
    34   17   18 1    
    35   17   81 1    
    36   17   82 1    
    37   18   19 1    
    38   18   22 1    
    39   18   83 1    
    40   19   20 am   BACKBONE|DICT|INTERRES
    41   19   21 2    
    42   20   84 1    
    43   20   85 1    
    44   22   23 am   BACKBONE|DICT|INTERRES
    45   22   86 1    
    46   23   24 2    
    47   23   25 1    
    48   25   26 1    
    49   25   27 1    
    50   25   87 1    
    51   26   88 1    
    52   26   89 1    
    53   26   90 1    
    54   27   28 am   BACKBONE|DICT|INTERRES
    55   27   91 1    
    56   28   29 2    
    57   28   30 1    
    58   30   31 1    
    59   30   32 1    
    60   30   92 1    
    61   31   93 1    
    62   31   94 1    
    63   31   95 1    
    64   32   33 am   BACKBONE|DICT|INTERRES
    65   32   96 1    
    66   33   34 2    
    67   33   35 1    
    68   35   36 1    
    69   35   37 1    
    70   35   97 1    
    71   36   98 1    
    72   36   99 1    
    73   36  100 1    
    74   37   38 am   BACKBONE|DICT|INTERRES
    75   37  101 1    
    76   38   39 2    
    77   38   40 1    
    78   40   41 1    
    79   40   42 1    
    80   40  102 1    
    81   41  103 1    
    82   41  104 1    
    83   41  105 1    
    84   42   43 am   BACKBONE|DICT|INTERRES
    85   42  106 1    
    86   43   44 2    
    87   43   45 1    
    88   45   46 1    
    89   45   49 1    
    90   45  107 1    
    91   46   47 1    
    92   46  108 1    
    93   46  109 1    
    94   47   48 1    
    95   48  110 1    
    96   48  111 1    
    97   49   50 am   BACKBONE|DICT|INTERRES
    98   49  112 1    
    99   50   51 2    
   100   50   52 1    
   101   52   53 1    
   102   52   54 1    
   103   52  113 1    
   104   53  114 1    
   105   53  115 1    
   106   53  116 1    
   107   54   55 am   BACKBONE|DICT|INTERRES
   108   54  117 1    
   109   55   56 2    
   110   55   57 1    
   111   57   58 1    
   112   57   59 1    
   113   57  118 1    
   114   58  119 1    
   115   58  120 1    
   116   58  121 1    
   117   59   60 am   BACKBONE|DICT|INTERRES
   118   59  122 1    
   119   60   61 2    
   120   60   62 1    
   121   62   63 1    
   122   62   64 1    
   123   62  123 1    
   124   63  124 1    
   125   63  125 1    
   126   63  126 1    
   127   64   65 am   BACKBONE|DICT|INTERRES
   128   64  127 1    
   129   65   66 2    
@<TRIPOS>SUBSTRUCTURE
     1 UNK         1 GROUP             0       ****    0 ROOT    
