@<TRIPOS>MOLECULE
3R135
127   129    1
SMALL
USER_CHARGES


@<TRIPOS>ATOM
      1 CA        -76.3905   27.5134  -72.7740 C.3       0 UNK        -0.1998 
      2 C         -77.5782   26.5776  -72.6301 C.2       0 UNK         0.4909 
      3 O         -78.4232   26.5154  -73.5209 O.2       0 UNK        -0.5240 
      4 N         -77.6401   25.8416  -71.5130 N.am      1 UNK        -0.4739 
      5 CA        -78.7513   24.9602  -71.1199 C.3       1 UNK         0.0864 
      6 C6        -80.0957   25.7189  -70.9314 C.3       11 UNK        -0.0881 
      7 S7        -79.9748   27.0444  -69.6800 S.3       11 UNK        -0.2682 
      8 C8        -80.7051   28.4775  -70.5437 C.3       11 UNK         0.0289 
      9 C9        -79.6961   29.3393  -71.3005 C.ar      11 UNK        -0.0687 
     10 C10       -79.9681   29.7490  -72.6108 C.ar      11 UNK        -0.0823 
     11 C11       -79.1192   30.6449  -73.2712 C.ar      11 UNK        -0.0830 
     12 C12       -77.9810   31.1214  -72.6158 C.ar      11 UNK        -0.1021 
     13 C13       -77.6881   30.7143  -71.3110 C.ar      11 UNK        -0.0753 
     14 C14       -78.5478   29.8215  -70.6614 C.ar      11 UNK        -0.0933 
     15 C15       -76.4867   31.2909  -70.5735 C.3       11 UNK         0.0166 
     16 S16       -74.9295   30.4533  -71.0077 S.3       11 UNK        -0.2615 
     17 C17       -74.3877   31.3657  -72.4988 C.3       11 UNK        -0.0865 
     18 CA        -74.1520   30.4338  -73.7264 C.3       10 UNK         0.0862 
     19 C         -73.8602   31.2181  -75.0435 C.2       10 UNK         0.5551 
     20 N         -74.6867   32.2000  -75.3823 N.am      10 UNK        -0.7319 
     21 O         -72.9205   30.9389  -75.7853 O.2       10 UNK        -0.5018 
     22 N         -73.1804   29.3632  -73.4391 N.am      10 UNK        -0.4509 
     23 C         -71.8910   29.5219  -73.1085 C.2       10 UNK         0.4899 
     24 O         -71.3329   30.6169  -73.0210 O.2       10 UNK        -0.4839 
     25 CA        -71.0747   28.2571  -72.7715 C.3       9 UNK         0.0222 
     26 CB        -70.6611   28.2698  -71.2891 C.3       9 UNK        -0.1966 
     27 N         -71.7524   26.9868  -73.0545 N.am      9 UNK        -0.4218 
     28 C         -71.9433   26.4696  -74.2744 C.2       9 UNK         0.5020 
     29 O         -71.6056   27.0389  -75.3139 O.2       9 UNK        -0.5274 
     30 CA        -72.5922   25.0771  -74.3478 C.3       8 UNK         0.0270 
     31 CB        -73.5367   24.7470  -73.1730 C.3       8 UNK        -0.1976 
     32 N         -73.3120   24.9588  -75.6122 N.am      8 UNK        -0.4313 
     33 C         -73.3040   23.8875  -76.4139 C.2       8 UNK         0.5041 
     34 O         -72.7548   22.8235  -76.1229 O.2       8 UNK        -0.5577 
     35 CA        -74.0151   24.0093  -77.7756 C.3       7 UNK         0.0284 
     36 CB        -75.1986   23.0320  -77.8677 C.3       7 UNK        -0.1958 
     37 N         -74.4760   25.3731  -78.0644 N.am      7 UNK        -0.4454 
     38 C         -73.6858   26.3403  -78.5579 C.2       7 UNK         0.5089 
     39 O         -72.5070   26.1557  -78.8624 O.2       7 UNK        -0.5125 
     40 CA        -74.2864   27.7457  -78.7631 C.3       6 UNK         0.0408 
     41 CB        -74.4040   28.0646  -80.2629 C.3       6 UNK        -0.1791 
     42 N         -75.5948   27.9443  -78.1373 N.am      6 UNK        -0.4762 
     43 C         -75.8153   28.0701  -76.8211 C.2       6 UNK         0.5007 
     44 O         -74.9302   28.0130  -75.9682 O.2       6 UNK        -0.5032 
     45 CA        -77.2895   28.2141  -76.3921 C.3       5 UNK         0.0783 
     46 C46       -77.7270   29.6994  -76.3541 C.3       11 UNK        -0.0857 
     47 S47       -79.4963   29.8867  -75.9351 S.3       11 UNK        -0.2512 
     48 C48       -79.4837   31.1760  -74.6520 C.3       11 UNK         0.0225 
     49 N         -78.1929   27.3812  -77.1981 N.am      5 UNK        -0.4615 
     50 C         -78.1433   26.0462  -77.2512 C.2       4 UNK         0.5053 
     51 O         -77.2470   25.3743  -76.7388 O.2       4 UNK        -0.5105 
     52 CA        -79.2539   25.3470  -78.0382 C.3       4 UNK         0.0263 
     53 CB        -78.7318   24.8853  -79.4082 C.3       4 UNK        -0.1981 
     54 N         -79.6814   24.1842  -77.2686 N.am      4 UNK        -0.4224 
     55 C         -80.8674   24.0339  -76.6720 C.2       3 UNK         0.4895 
     56 O         -81.8064   24.8198  -76.8048 O.2       3 UNK        -0.5091 
     57 CA        -81.0460   22.8072  -75.7579 C.3       3 UNK         0.0250 
     58 CB        -81.2962   21.5277  -76.5805 C.3       3 UNK        -0.1996 
     59 N         -79.9710   22.6200  -74.7711 N.am      3 UNK        -0.4254 
     60 C         -78.6811   22.3121  -74.9644 C.2       2 UNK         0.5004 
     61 O         -78.1915   22.1148  -76.0778 O.2       2 UNK        -0.5226 
     62 CA        -77.7927   22.2142  -73.7043 C.3       2 UNK         0.0269 
     63 CB        -76.3096   21.9810  -74.0517 C.3       2 UNK        -0.1926 
     64 N         -77.8830   23.3883  -72.8272 N.am      2 UNK        -0.4687 
     65 C         -78.9022   23.7041  -72.0141 C.2       1 UNK         0.5165 
     66 O         -79.9274   23.0234  -71.9407 O.2       1 UNK        -0.5079 
     67 H67       -75.7723   27.2105  -73.6160 H         1 UNK         0.0900 
     68 H68       -75.7705   27.5329  -71.8780 H         1 UNK         0.0900 
     69 H69       -76.7466   28.5253  -72.9580 H         1 UNK         0.0900 
     70 H70       -76.9078   25.9340  -70.8227 H         1 UNK         0.2959 
     71 H71       -78.4724   24.5616  -70.1431 H         1 UNK         0.1079 
     72 H72       -80.4417   26.1296  -71.8811 H         1 UNK         0.0837 
     73 H73       -80.8802   25.0378  -70.5966 H         1 UNK         0.0837 
     74 H74       -81.5043   28.1360  -71.2032 H         1 UNK         0.0685 
     75 H75       -81.1860   29.1097  -69.7963 H         1 UNK         0.0685 
     76 H76       -80.8642   29.4036  -73.1082 H         1 UNK         0.1434 
     77 H77       -77.3429   31.8386  -73.1100 H         1 UNK         0.1329 
     78 H78       -78.3431   29.5271  -69.6412 H         1 UNK         0.1335 
     79 H79       -76.4046   32.3621  -70.7632 H         1 UNK         0.0680 
     80 H80       -76.6339   31.1936  -69.4968 H         1 UNK         0.0680 
     81 H81       -73.4753   31.9098  -72.2512 H         1 UNK         0.1032 
     82 H82       -75.1209   32.1370  -72.7288 H         1 UNK         0.1032 
     83 H83       -75.0881   29.9131  -73.9246 H         1 UNK         0.0461 
     84 H84       -75.4728   32.4573  -74.8097 H         1 UNK         0.3453 
     85 H85       -74.5080   32.7052  -76.2361 H         1 UNK         0.3453 
     86 H86       -73.5259   28.4238  -73.5570 H         1 UNK         0.2984 
     87 H87       -70.1653   28.2957  -73.3749 H         1 UNK         0.0554 
     88 H88       -70.0208   27.4218  -71.0454 H         1 UNK         0.0847 
     89 H89       -71.5287   28.2401  -70.6284 H         1 UNK         0.0847 
     90 H90       -70.1002   29.1734  -71.0459 H         1 UNK         0.0847 
     91 H91       -72.0620   26.4546  -72.2541 H         1 UNK         0.3141 
     92 H92       -71.7654   24.3637  -74.3322 H         1 UNK         0.0743 
     93 H93       -74.3517   25.4635  -73.0922 H         1 UNK         0.0784 
     94 H94       -73.9779   23.7586  -73.2977 H         1 UNK         0.0784 
     95 H95       -73.0072   24.7300  -72.2200 H         1 UNK         0.0784 
     96 H96       -73.7198   25.8183  -75.9602 H         1 UNK         0.3213 
     97 H97       -73.2904   23.7168  -78.5387 H         1 UNK         0.0855 
     98 H98       -75.9337   23.2109  -77.0844 H         1 UNK         0.0814 
     99 H99       -74.8613   22.0007  -77.7573 H         1 UNK         0.0814 
    100 H100      -75.7041   23.1046  -78.8302 H         1 UNK         0.0814 
    101 H101      -75.4287   25.5936  -77.7939 H         1 UNK         0.3105 
    102 H102      -73.5895   28.4593  -78.3175 H         1 UNK         0.0547 
    103 H103      -73.4372   27.9724  -80.7598 H         1 UNK         0.0837 
    104 H104      -75.0941   27.3870  -80.7672 H         1 UNK         0.0837 
    105 H105      -74.7517   29.0846  -80.4270 H         1 UNK         0.0837 
    106 H106      -76.3932   27.9713  -78.7555 H         1 UNK         0.3020 
    107 H107      -77.3512   27.8336  -75.3748 H         1 UNK         0.1245 
    108 H108      -77.5588   30.1786  -77.3205 H         1 UNK         0.0781 
    109 H109      -77.1229   30.2487  -75.6297 H         1 UNK         0.0781 
    110 H110      -80.4801   31.6170  -74.5992 H         1 UNK         0.0836 
    111 H111      -78.8162   31.9834  -74.9572 H         1 UNK         0.0836 
    112 H112      -78.9643   27.8663  -77.6337 H         1 UNK         0.3022 
    113 H113      -80.0840   26.0402  -78.1898 H         1 UNK         0.0747 
    114 H114      -79.5123   24.3796  -79.9770 H         1 UNK         0.0793 
    115 H115      -78.3923   25.7331  -80.0046 H         1 UNK         0.0793 
    116 H116      -77.8921   24.1963  -79.3096 H         1 UNK         0.0793 
    117 H117      -78.9506   23.5167  -77.0256 H         1 UNK         0.3047 
    118 H118      -81.9458   22.9911  -75.1682 H         1 UNK         0.0822 
    119 H119      -81.4995   20.6744  -75.9335 H         1 UNK         0.0807 
    120 H120      -80.4460   21.2730  -77.2138 H         1 UNK         0.0807 
    121 H121      -82.1598   21.6508  -77.2353 H         1 UNK         0.0807 
    122 H122      -80.2414   22.7815  -73.8041 H         1 UNK         0.2946 
    123 H123      -78.1433   21.3430  -73.1462 H         1 UNK         0.1144 
    124 H124      -75.7069   21.8436  -73.1540 H         1 UNK         0.0793 
    125 H125      -75.8935   22.8184  -74.6135 H         1 UNK         0.0793 
    126 H126      -76.1834   21.0856  -74.6620 H         1 UNK         0.0793 
    127 H127      -77.1068   24.0326  -72.8611 H         1 UNK         0.2896 
@<TRIPOS>BOND
     1    1    2 1    
     2    1   67 1    
     3    1   68 1    
     4    1   69 1    
     5    2    3 2    
     6    2    4 am   BACKBONE|DICT|INTERRES
     7    4    5 1    
     8    4   70 1    
     9    5    6 1    
    10    5   65 1    
    11    5   71 1    
    12    6    7 1    
    13    6   72 1    
    14    6   73 1    
    15    7    8 1    
    16    8    9 1    
    17    8   74 1    
    18    8   75 1    
    19    9   10 ar   
    20    9   14 ar   
    21   10   11 ar   
    22   10   76 1    
    23   11   12 ar   
    24   11   48 1    
    25   12   13 ar   
    26   12   77 1    
    27   13   14 ar   
    28   13   15 1    
    29   14   78 1    
    30   15   16 1    
    31   15   79 1    
    32   15   80 1    
    33   16   17 1    
    34   17   18 1    
    35   17   81 1    
    36   17   82 1    
    37   18   19 1    
    38   18   22 1    
    39   18   83 1    
    40   19   20 am   BACKBONE|DICT|INTERRES
    41   19   21 2    
    42   20   84 1    
    43   20   85 1    
    44   22   23 am   BACKBONE|DICT|INTERRES
    45   22   86 1    
    46   23   24 2    
    47   23   25 1    
    48   25   26 1    
    49   25   27 1    
    50   25   87 1    
    51   26   88 1    
    52   26   89 1    
    53   26   90 1    
    54   27   28 am   BACKBONE|DICT|INTERRES
    55   27   91 1    
    56   28   29 2    
    57   28   30 1    
    58   30   31 1    
    59   30   32 1    
    60   30   92 1    
    61   31   93 1    
    62   31   94 1    
    63   31   95 1    
    64   32   33 am   BACKBONE|DICT|INTERRES
    65   32   96 1    
    66   33   34 2    
    67   33   35 1    
    68   35   36 1    
    69   35   37 1    
    70   35   97 1    
    71   36   98 1    
    72   36   99 1    
    73   36  100 1    
    74   37   38 am   BACKBONE|DICT|INTERRES
    75   37  101 1    
    76   38   39 2    
    77   38   40 1    
    78   40   41 1    
    79   40   42 1    
    80   40  102 1    
    81   41  103 1    
    82   41  104 1    
    83   41  105 1    
    84   42   43 am   BACKBONE|DICT|INTERRES
    85   42  106 1    
    86   43   44 2    
    87   43   45 1    
    88   45   46 1    
    89   45   49 1    
    90   45  107 1    
    91   46   47 1    
    92   46  108 1    
    93   46  109 1    
    94   47   48 1    
    95   48  110 1    
    96   48  111 1    
    97   49   50 am   BACKBONE|DICT|INTERRES
    98   49  112 1    
    99   50   51 2    
   100   50   52 1    
   101   52   53 1    
   102   52   54 1    
   103   52  113 1    
   104   53  114 1    
   105   53  115 1    
   106   53  116 1    
   107   54   55 am   BACKBONE|DICT|INTERRES
   108   54  117 1    
   109   55   56 2    
   110   55   57 1    
   111   57   58 1    
   112   57   59 1    
   113   57  118 1    
   114   58  119 1    
   115   58  120 1    
   116   58  121 1    
   117   59   60 am   BACKBONE|DICT|INTERRES
   118   59  122 1    
   119   60   61 2    
   120   60   62 1    
   121   62   63 1    
   122   62   64 1    
   123   62  123 1    
   124   63  124 1    
   125   63  125 1    
   126   63  126 1    
   127   64   65 am   BACKBONE|DICT|INTERRES
   128   64  127 1    
   129   65   66 2    
@<TRIPOS>SUBSTRUCTURE
     1 UNK         1 GROUP             0       ****    0 ROOT    
