@<TRIPOS>MOLECULE
3R135
127   129    1
SMALL
USER_CHARGES


@<TRIPOS>ATOM
      1 CA        -84.4781   25.2525  -74.1937 C.3       0 UNK        -0.1998 
      2 C         -83.5892   26.4705  -74.3934 C.2       0 UNK         0.4909 
      3 O         -83.2743   26.8203  -75.5314 O.2       0 UNK        -0.5240 
      4 N         -83.1835   27.1232  -73.2971 N.am      1 UNK        -0.4739 
      5 CA        -82.2377   28.2438  -73.2948 C.3       1 UNK         0.0864 
      6 C6        -82.2718   29.0455  -71.9635 C.3       11 UNK        -0.0881 
      7 S7        -82.2306   28.0303  -70.4420 S.3       11 UNK        -0.2682 
      8 C8        -80.8200   28.7436  -69.5283 C.3       11 UNK         0.0289 
      9 C9        -79.4808   28.4471  -70.1902 C.ar      11 UNK        -0.0687 
     10 C10       -79.1230   27.1299  -70.4867 C.ar      11 UNK        -0.0823 
     11 C11       -77.9199   26.8386  -71.1332 C.ar      11 UNK        -0.0830 
     12 C12       -77.0486   27.8888  -71.4448 C.ar      11 UNK        -0.1021 
     13 C13       -77.3882   29.2132  -71.1530 C.ar      11 UNK        -0.0753 
     14 C14       -78.6050   29.4856  -70.5198 C.ar      11 UNK        -0.0933 
     15 C15       -76.4832   30.3562  -71.5934 C.3       11 UNK         0.0166 
     16 S16       -74.9923   30.5259  -70.5584 S.3       11 UNK        -0.2615 
     17 C17       -73.7588   29.5898  -71.5280 C.3       11 UNK        -0.0865 
     18 CA        -73.3383   30.3223  -72.8398 C.3       10 UNK         0.0862 
     19 C         -71.9490   31.0195  -72.7233 C.2       10 UNK         0.5551 
     20 N         -71.0004   30.7878  -73.6237 N.am      10 UNK        -0.7319 
     21 O         -71.7281   31.7969  -71.7982 O.2       10 UNK        -0.5018 
     22 N         -73.4805   29.4383  -74.0083 N.am      10 UNK        -0.4509 
     23 C         -73.7834   29.8443  -75.2486 C.2       10 UNK         0.4899 
     24 O         -74.0725   31.0062  -75.5376 O.2       10 UNK        -0.4839 
     25 CA        -73.7521   28.7620  -76.3480 C.3       9 UNK         0.0222 
     26 CB        -73.6341   29.3510  -77.7685 C.3       9 UNK        -0.1966 
     27 N         -72.7238   27.7356  -76.1318 N.am      9 UNK        -0.4218 
     28 C         -71.3987   27.9083  -75.9996 C.2       9 UNK         0.5020 
     29 O         -70.8446   29.0077  -76.0234 O.2       9 UNK        -0.5274 
     30 CA        -70.5477   26.6501  -75.7646 C.3       8 UNK         0.0270 
     31 CB        -70.4575   26.3526  -74.2582 C.3       8 UNK        -0.1976 
     32 N         -71.1038   25.4816  -76.4518 N.am      8 UNK        -0.4313 
     33 C         -70.5534   24.8627  -77.5047 C.2       8 UNK         0.5041 
     34 O         -69.4635   25.1691  -77.9905 O.2       8 UNK        -0.5577 
     35 CA        -71.3511   23.6999  -78.1309 C.3       7 UNK         0.0284 
     36 CB        -70.9173   22.3595  -77.5157 C.3       7 UNK        -0.1958 
     37 N         -72.8042   23.8467  -77.9948 N.am      7 UNK        -0.4454 
     38 C         -73.5292   24.8063  -78.5856 C.2       7 UNK         0.5089 
     39 O         -73.0644   25.6059  -79.3982 O.2       7 UNK        -0.5125 
     40 CA        -75.0176   24.9217  -78.1989 C.3       6 UNK         0.0408 
     41 CB        -75.8927   24.2810  -79.2877 C.3       6 UNK        -0.1791 
     42 N         -75.4195   24.3972  -76.8818 N.am      6 UNK        -0.4762 
     43 C         -74.8598   24.6886  -75.6946 C.2       6 UNK         0.5007 
     44 O         -73.7775   25.2658  -75.5911 O.2       6 UNK        -0.5032 
     45 CA        -75.6291   24.3144  -74.4085 C.3       5 UNK         0.0783 
     46 C46       -75.4107   25.3925  -73.3100 C.3       11 UNK        -0.0857 
     47 S47       -75.9253   24.8628  -71.6416 S.3       11 UNK        -0.2512 
     48 C48       -77.6683   25.3950  -71.5644 C.3       11 UNK         0.0225 
     49 N         -77.0534   24.1674  -74.7148 N.am      5 UNK        -0.4615 
     50 C         -77.8044   23.0755  -74.5254 C.2       4 UNK         0.5053 
     51 O         -77.3620   22.0131  -74.0893 O.2       4 UNK        -0.5105 
     52 CA        -79.3052   23.1780  -74.8750 C.3       4 UNK         0.0263 
     53 CB        -80.1786   23.1009  -73.6110 C.3       4 UNK        -0.1981 
     54 N         -79.6441   24.3979  -75.6162 N.am      4 UNK        -0.4224 
     55 C         -79.3835   24.5767  -76.9205 C.2       3 UNK         0.4895 
     56 O         -78.9236   23.6937  -77.6438 O.2       3 UNK        -0.5091 
     57 CA        -79.6261   25.9764  -77.5171 C.3       3 UNK         0.0250 
     58 CB        -80.9703   26.0189  -78.2600 C.3       3 UNK        -0.1996 
     59 N         -79.5785   27.0609  -76.5311 N.am      3 UNK        -0.4254 
     60 C         -78.4989   27.3952  -75.8080 C.2       2 UNK         0.5004 
     61 O         -77.4056   26.8451  -75.9284 O.2       2 UNK        -0.5226 
     62 CA        -78.6640   28.4846  -74.7342 C.3       2 UNK         0.0269 
     63 CB        -78.0604   29.8140  -75.2134 C.3       2 UNK        -0.1926 
     64 N         -80.0430   28.7064  -74.2819 N.am      2 UNK        -0.4687 
     65 C         -80.8165   27.7845  -73.6887 C.2       1 UNK         0.5165 
     66 O         -80.4567   26.6196  -73.4918 O.2       1 UNK        -0.5079 
     67 H67       -85.4266   25.3907  -74.7118 H         1 UNK         0.0900 
     68 H68       -83.9925   24.3655  -74.5999 H         1 UNK         0.0900 
     69 H69       -84.6894   25.0712  -73.1400 H         1 UNK         0.0900 
     70 H70       -83.4383   26.7804  -72.3814 H         1 UNK         0.2959 
     71 H71       -82.5660   28.9266  -74.0822 H         1 UNK         0.1079 
     72 H72       -83.1963   29.6239  -71.9278 H         1 UNK         0.0837 
     73 H73       -81.4724   29.7886  -71.9378 H         1 UNK         0.0837 
     74 H74       -80.9748   29.8179  -69.4159 H         1 UNK         0.0685 
     75 H75       -80.8096   28.3269  -68.5203 H         1 UNK         0.0685 
     76 H76       -79.8144   26.3307  -70.2561 H         1 UNK         0.1434 
     77 H77       -76.1228   27.6902  -71.9551 H         1 UNK         0.1329 
     78 H78       -78.8798   30.5088  -70.3031 H         1 UNK         0.1335 
     79 H79       -76.2058   30.2146  -72.6387 H         1 UNK         0.0680 
     80 H80       -77.0289   31.3004  -71.5584 H         1 UNK         0.0680 
     81 H81       -72.8992   29.3971  -70.8827 H         1 UNK         0.1032 
     82 H82       -74.1637   28.6011  -71.7359 H         1 UNK         0.1032 
     83 H83       -74.0291   31.1523  -72.9976 H         1 UNK         0.0461 
     84 H84       -71.1555   30.1726  -74.4147 H         1 UNK         0.3453 
     85 H85       -70.1132   31.2552  -73.5269 H         1 UNK         0.3453 
     86 H86       -73.2232   28.4725  -73.8730 H         1 UNK         0.2984 
     87 H87       -74.7106   28.2436  -76.2863 H         1 UNK         0.0554 
     88 H88       -74.4699   30.0161  -77.9890 H         1 UNK         0.0847 
     89 H89       -73.6393   28.5649  -78.5239 H         1 UNK         0.0847 
     90 H90       -72.7166   29.9276  -77.8905 H         1 UNK         0.0847 
     91 H91       -73.0887   26.7908  -76.0181 H         1 UNK         0.3141 
     92 H92       -69.5413   26.8639  -76.1306 H         1 UNK         0.0743 
     93 H93       -71.4336   26.1185  -73.8309 H         1 UNK         0.0784 
     94 H94       -69.7972   25.5074  -74.0634 H         1 UNK         0.0784 
     95 H95       -70.0567   27.2085  -73.7129 H         1 UNK         0.0784 
     96 H96       -72.0221   25.1724  -76.1421 H         1 UNK         0.3213 
     97 H97       -71.1152   23.6791  -79.1972 H         1 UNK         0.0855 
     98 H98       -71.1443   22.3109  -76.4499 H         1 UNK         0.0814 
     99 H99       -69.8422   22.2104  -77.6264 H         1 UNK         0.0814 
    100 H100      -71.4106   21.5192  -78.0046 H         1 UNK         0.0814 
    101 H101      -73.2725   23.2324  -77.3447 H         1 UNK         0.3105 
    102 H102      -75.2431   25.9901  -78.1796 H         1 UNK         0.0547 
    103 H103      -75.6005   24.6221  -80.2821 H         1 UNK         0.0837 
    104 H104      -75.8149   23.1933  -79.2801 H         1 UNK         0.0837 
    105 H105      -76.9413   24.5458  -79.1608 H         1 UNK         0.0837 
    106 H106      -76.3014   23.9037  -76.8619 H         1 UNK         0.3020 
    107 H107      -75.2090   23.3667  -74.0646 H         1 UNK         0.1245 
    108 H108      -74.3549   25.6513  -73.2112 H         1 UNK         0.0781 
    109 H109      -75.9193   26.3135  -73.5952 H         1 UNK         0.0781 
    110 H110      -78.1811   24.7157  -70.8816 H         1 UNK         0.0836 
    111 H111      -78.1375   25.2573  -72.5360 H         1 UNK         0.0836 
    112 H112      -77.4784   24.9954  -75.1199 H         1 UNK         0.3022 
    113 H113      -79.5456   22.3138  -75.4981 H         1 UNK         0.0747 
    114 H114      -81.2377   23.0627  -73.8665 H         1 UNK         0.0793 
    115 H115      -79.9541   22.2039  -73.0321 H         1 UNK         0.0793 
    116 H116      -80.0285   23.9583  -72.9558 H         1 UNK         0.0793 
    117 H117      -80.0126   25.1726  -75.0743 H         1 UNK         0.3047 
    118 H118      -78.8295   26.1594  -78.2415 H         1 UNK         0.0822 
    119 H119      -81.1262   26.9812  -78.7478 H         1 UNK         0.0807 
    120 H120      -81.8093   25.8429  -77.5860 H         1 UNK         0.0807 
    121 H121      -81.0110   25.2533  -79.0361 H         1 UNK         0.0807 
    122 H122      -80.4440   27.5498  -76.3515 H         1 UNK         0.2946 
    123 H123      -78.0935   28.1438  -73.8715 H         1 UNK         0.1144 
    124 H124      -78.0731   30.5641  -74.4225 H         1 UNK         0.0793 
    125 H125      -78.6016   30.2175  -76.0699 H         1 UNK         0.0793 
    126 H126      -77.0202   29.6847  -75.5163 H         1 UNK         0.0793 
    127 H127      -80.4125   29.6361  -74.4210 H         1 UNK         0.2896 
@<TRIPOS>BOND
     1    1    2 1    
     2    1   67 1    
     3    1   68 1    
     4    1   69 1    
     5    2    3 2    
     6    2    4 am   BACKBONE|DICT|INTERRES
     7    4    5 1    
     8    4   70 1    
     9    5    6 1    
    10    5   65 1    
    11    5   71 1    
    12    6    7 1    
    13    6   72 1    
    14    6   73 1    
    15    7    8 1    
    16    8    9 1    
    17    8   74 1    
    18    8   75 1    
    19    9   10 ar   
    20    9   14 ar   
    21   10   11 ar   
    22   10   76 1    
    23   11   12 ar   
    24   11   48 1    
    25   12   13 ar   
    26   12   77 1    
    27   13   14 ar   
    28   13   15 1    
    29   14   78 1    
    30   15   16 1    
    31   15   79 1    
    32   15   80 1    
    33   16   17 1    
    34   17   18 1    
    35   17   81 1    
    36   17   82 1    
    37   18   19 1    
    38   18   22 1    
    39   18   83 1    
    40   19   20 am   BACKBONE|DICT|INTERRES
    41   19   21 2    
    42   20   84 1    
    43   20   85 1    
    44   22   23 am   BACKBONE|DICT|INTERRES
    45   22   86 1    
    46   23   24 2    
    47   23   25 1    
    48   25   26 1    
    49   25   27 1    
    50   25   87 1    
    51   26   88 1    
    52   26   89 1    
    53   26   90 1    
    54   27   28 am   BACKBONE|DICT|INTERRES
    55   27   91 1    
    56   28   29 2    
    57   28   30 1    
    58   30   31 1    
    59   30   32 1    
    60   30   92 1    
    61   31   93 1    
    62   31   94 1    
    63   31   95 1    
    64   32   33 am   BACKBONE|DICT|INTERRES
    65   32   96 1    
    66   33   34 2    
    67   33   35 1    
    68   35   36 1    
    69   35   37 1    
    70   35   97 1    
    71   36   98 1    
    72   36   99 1    
    73   36  100 1    
    74   37   38 am   BACKBONE|DICT|INTERRES
    75   37  101 1    
    76   38   39 2    
    77   38   40 1    
    78   40   41 1    
    79   40   42 1    
    80   40  102 1    
    81   41  103 1    
    82   41  104 1    
    83   41  105 1    
    84   42   43 am   BACKBONE|DICT|INTERRES
    85   42  106 1    
    86   43   44 2    
    87   43   45 1    
    88   45   46 1    
    89   45   49 1    
    90   45  107 1    
    91   46   47 1    
    92   46  108 1    
    93   46  109 1    
    94   47   48 1    
    95   48  110 1    
    96   48  111 1    
    97   49   50 am   BACKBONE|DICT|INTERRES
    98   49  112 1    
    99   50   51 2    
   100   50   52 1    
   101   52   53 1    
   102   52   54 1    
   103   52  113 1    
   104   53  114 1    
   105   53  115 1    
   106   53  116 1    
   107   54   55 am   BACKBONE|DICT|INTERRES
   108   54  117 1    
   109   55   56 2    
   110   55   57 1    
   111   57   58 1    
   112   57   59 1    
   113   57  118 1    
   114   58  119 1    
   115   58  120 1    
   116   58  121 1    
   117   59   60 am   BACKBONE|DICT|INTERRES
   118   59  122 1    
   119   60   61 2    
   120   60   62 1    
   121   62   63 1    
   122   62   64 1    
   123   62  123 1    
   124   63  124 1    
   125   63  125 1    
   126   63  126 1    
   127   64   65 am   BACKBONE|DICT|INTERRES
   128   64  127 1    
   129   65   66 2    
@<TRIPOS>SUBSTRUCTURE
     1 UNK         1 GROUP             0       ****    0 ROOT    
