@<TRIPOS>MOLECULE
3R135
127   129    1
SMALL
USER_CHARGES


@<TRIPOS>ATOM
      1 CA        -82.9514   27.1923  -74.1707 C.3       0 UNK        -0.1998 
      2 C         -83.7253   26.8576  -72.8975 C.2       0 UNK         0.4909 
      3 O         -84.9157   26.5594  -72.9767 O.2       0 UNK        -0.5240 
      4 N         -83.1128   26.9069  -71.7071 N.am      1 UNK        -0.4739 
      5 CA        -81.6884   27.1585  -71.4664 C.3       1 UNK         0.0864 
      6 C6        -81.4437   27.8210  -70.0895 C.3       11 UNK        -0.0881 
      7 S7        -82.0604   29.5383  -70.0847 S.3       11 UNK        -0.2682 
      8 C8        -80.5145   30.5053  -70.1751 C.3       11 UNK         0.0289 
      9 C9        -79.6011   30.0829  -71.3220 C.ar      11 UNK        -0.0687 
     10 C10       -80.0477   30.1290  -72.6467 C.ar      11 UNK        -0.0823 
     11 C11       -79.2139   29.7279  -73.6966 C.ar      11 UNK        -0.0830 
     12 C12       -77.9035   29.3265  -73.4133 C.ar      11 UNK        -0.1021 
     13 C13       -77.4400   29.2920  -72.0961 C.ar      11 UNK        -0.0753 
     14 C14       -78.2965   29.6584  -71.0546 C.ar      11 UNK        -0.0933 
     15 C15       -76.0074   28.8853  -71.7933 C.3       11 UNK         0.0166 
     16 S16       -74.9477   30.3578  -71.6728 S.3       11 UNK        -0.2615 
     17 C17       -73.4130   29.6519  -70.9857 C.3       11 UNK        -0.0865 
     18 CA        -72.1579   30.0579  -71.7991 C.3       10 UNK         0.0862 
     19 C         -70.8692   29.6141  -71.0532 C.2       10 UNK         0.5551 
     20 N         -70.1541   30.5443  -70.4356 N.am      10 UNK        -0.7319 
     21 O         -70.5475   28.4300  -70.9858 O.2       10 UNK        -0.5018 
     22 N         -72.2223   29.5442  -73.1752 N.am      10 UNK        -0.4509 
     23 C         -71.3444   29.8139  -74.1505 C.2       10 UNK         0.4899 
     24 O         -70.4073   30.6043  -74.0254 O.2       10 UNK        -0.4839 
     25 CA        -71.5676   29.1020  -75.5026 C.3       9 UNK         0.0222 
     26 CB        -70.2749   28.9875  -76.3377 C.3       9 UNK        -0.1966 
     27 N         -72.2249   27.7926  -75.3956 N.am      9 UNK        -0.4218 
     28 C         -71.7933   26.7160  -74.7182 C.2       9 UNK         0.5020 
     29 O         -70.7638   26.6827  -74.0440 O.2       9 UNK        -0.5274 
     30 CA        -72.6576   25.4498  -74.8303 C.3       8 UNK         0.0270 
     31 CB        -73.9728   25.6037  -74.0471 C.3       8 UNK        -0.1976 
     32 N         -72.9486   25.0990  -76.2210 N.am      8 UNK        -0.4313 
     33 C         -72.0312   24.7304  -77.1281 C.2       8 UNK         0.5041 
     34 O         -70.8362   24.5687  -76.8775 O.2       8 UNK        -0.5577 
     35 CA        -72.5307   24.5143  -78.5637 C.3       7 UNK         0.0284 
     36 CB        -73.1359   23.1112  -78.7236 C.3       7 UNK        -0.1958 
     37 N         -73.5137   25.5313  -78.9418 N.am      7 UNK        -0.4454 
     38 C         -73.1925   26.7706  -79.3400 C.2       7 UNK         0.5089 
     39 O         -72.0361   27.1603  -79.5026 O.2       7 UNK        -0.5125 
     40 CA        -74.3530   27.7468  -79.6045 C.3       6 UNK         0.0408 
     41 CB        -74.7392   27.7278  -81.0919 C.3       6 UNK        -0.1791 
     42 N         -75.5431   27.4804  -78.7919 N.am      6 UNK        -0.4762 
     43 C         -75.6174   27.6676  -77.4661 C.2       6 UNK         0.5007 
     44 O         -74.6823   28.0721  -76.7751 O.2       6 UNK        -0.5032 
     45 CA        -76.9515   27.2947  -76.7908 C.3       5 UNK         0.0783 
     46 C46       -77.9594   28.4624  -76.9208 C.3       11 UNK        -0.0857 
     47 S47       -79.5121   28.1716  -76.0020 S.3       11 UNK        -0.2512 
     48 C48       -79.7338   29.7600  -75.1297 C.3       11 UNK         0.0225 
     49 N         -77.5099   26.0255  -77.2785 N.am      5 UNK        -0.4615 
     50 C         -76.8796   24.8446  -77.2805 C.2       4 UNK         0.5053 
     51 O         -75.7154   24.6854  -76.9093 O.2       4 UNK        -0.5105 
     52 CA        -77.7003   23.6322  -77.7217 C.3       4 UNK         0.0263 
     53 CB        -76.8957   22.6580  -78.6011 C.3       4 UNK        -0.1981 
     54 N         -78.1402   22.9688  -76.5040 N.am      4 UNK        -0.4224 
     55 C         -79.2528   22.2403  -76.3656 C.2       3 UNK         0.4895 
     56 O         -80.0028   21.9425  -77.2961 O.2       3 UNK        -0.5091 
     57 CA        -79.6010   21.7833  -74.9355 C.3       3 UNK         0.0250 
     58 CB        -79.0407   20.3766  -74.6691 C.3       3 UNK        -0.1996 
     59 N         -79.1305   22.7022  -73.8887 N.am      3 UNK        -0.4254 
     60 C         -79.5535   23.9665  -73.7430 C.2       2 UNK         0.5004 
     61 O         -80.3882   24.4961  -74.4802 O.2       2 UNK        -0.5226 
     62 CA        -78.8990   24.7832  -72.6126 C.3       2 UNK         0.0269 
     63 CB        -77.5179   25.2962  -73.0527 C.3       2 UNK        -0.1926 
     64 N         -79.7199   25.9339  -72.2317 N.am      2 UNK        -0.4687 
     65 C         -80.8979   25.8475  -71.6013 C.2       1 UNK         0.5165 
     66 O         -81.3558   24.8010  -71.1347 O.2       1 UNK        -0.5079 
     67 H67       -82.0616   26.5724  -74.2718 H         1 UNK         0.0900 
     68 H68       -82.6522   28.2400  -74.1761 H         1 UNK         0.0900 
     69 H69       -83.5705   27.0203  -75.0509 H         1 UNK         0.0900 
     70 H70       -83.6448   26.6633  -70.8842 H         1 UNK         0.2959 
     71 H71       -81.3188   27.8380  -72.2323 H         1 UNK         0.1079 
     72 H72       -81.9432   27.2630  -69.2953 H         1 UNK         0.0837 
     73 H73       -80.3826   27.8222  -69.8317 H         1 UNK         0.0837 
     74 H74       -80.7660   31.5601  -70.2933 H         1 UNK         0.0685 
     75 H75       -79.9977   30.4200  -69.2178 H         1 UNK         0.0685 
     76 H76       -81.0559   30.4627  -72.8526 H         1 UNK         0.1434 
     77 H77       -77.2374   29.0479  -74.2163 H         1 UNK         0.1329 
     78 H78       -77.9351   29.6337  -70.0355 H         1 UNK         0.1335 
     79 H79       -75.9735   28.3282  -70.8555 H         1 UNK         0.0680 
     80 H80       -75.6231   28.2196  -72.5679 H         1 UNK         0.0680 
     81 H81       -73.4915   28.5644  -70.9254 H         1 UNK         0.1032 
     82 H82       -73.3289   30.0038  -69.9554 H         1 UNK         0.1032 
     83 H83       -72.1468   31.1476  -71.8728 H         1 UNK         0.0461 
     84 H84       -70.4162   31.5170  -70.4795 H         1 UNK         0.3453 
     85 H85       -69.3253   30.2715  -69.9306 H         1 UNK         0.3453 
     86 H86       -72.9609   28.8865  -73.3690 H         1 UNK         0.2984 
     87 H87       -72.2605   29.7340  -76.0599 H         1 UNK         0.0554 
     88 H88       -70.4651   28.5045  -77.2966 H         1 UNK         0.0847 
     89 H89       -69.5093   28.4106  -75.8181 H         1 UNK         0.0847 
     90 H90       -69.8541   29.9710  -76.5502 H         1 UNK         0.0847 
     91 H91       -73.1056   27.7206  -75.9041 H         1 UNK         0.3141 
     92 H92       -72.0961   24.6230  -74.3900 H         1 UNK         0.0743 
     93 H93       -74.6097   26.3835  -74.4651 H         1 UNK         0.0784 
     94 H94       -74.5394   24.6728  -74.0531 H         1 UNK         0.0784 
     95 H95       -73.7804   25.8598  -73.0043 H         1 UNK         0.0784 
     96 H96       -73.9250   25.1245  -76.5060 H         1 UNK         0.3213 
     97 H97       -71.6726   24.5881  -79.2359 H         1 UNK         0.0855 
     98 H98       -73.9376   22.9348  -78.0077 H         1 UNK         0.0814 
     99 H99       -72.3795   22.3439  -78.5537 H         1 UNK         0.0814 
    100 H100      -73.5349   22.9577  -79.7263 H         1 UNK         0.0814 
    101 H101      -74.4869   25.3099  -78.7846 H         1 UNK         0.3105 
    102 H102      -73.9977   28.7502  -79.3596 H         1 UNK         0.0547 
    103 H103      -73.8764   27.9512  -81.7212 H         1 UNK         0.0837 
    104 H104      -75.1218   26.7538  -81.3992 H         1 UNK         0.0837 
    105 H105      -75.5009   28.4751  -81.3148 H         1 UNK         0.0837 
    106 H106      -76.3598   27.1330  -79.2746 H         1 UNK         0.3020 
    107 H107      -76.7276   27.1556  -75.7324 H         1 UNK         0.1245 
    108 H108      -77.5027   29.3909  -76.5732 H         1 UNK         0.0781 
    109 H109      -78.2180   28.6318  -77.9679 H         1 UNK         0.0781 
    110 H110      -79.2534   30.5727  -75.6756 H         1 UNK         0.0836 
    111 H111      -80.8003   29.9898  -75.1368 H         1 UNK         0.0836 
    112 H112      -78.4805   26.0587  -77.5568 H         1 UNK         0.3022 
    113 H113      -78.5663   23.9829  -78.2877 H         1 UNK         0.0747 
    114 H114      -77.5393   21.8811  -79.0140 H         1 UNK         0.0793 
    115 H115      -76.4300   23.1748  -79.4410 H         1 UNK         0.0793 
    116 H116      -76.1070   22.1631  -78.0348 H         1 UNK         0.0793 
    117 H117      -77.5866   23.1672  -75.6822 H         1 UNK         0.3047 
    118 H118      -80.6902   21.7360  -74.8680 H         1 UNK         0.0822 
    119 H119      -79.3575   19.9998  -73.6963 H         1 UNK         0.0807 
    120 H120      -77.9504   20.3626  -74.6976 H         1 UNK         0.0807 
    121 H121      -79.3948   19.6676  -75.4190 H         1 UNK         0.0807 
    122 H122      -78.4424   22.3379  -73.2448 H         1 UNK         0.2946 
    123 H123      -78.7816   24.1372  -71.7393 H         1 UNK         0.1144 
    124 H124      -76.8574   24.4705  -73.3184 H         1 UNK         0.0793 
    125 H125      -77.5940   25.9485  -73.9225 H         1 UNK         0.0793 
    126 H126      -77.0286   25.8560  -72.2553 H         1 UNK         0.0793 
    127 H127      -79.4224   26.8294  -72.5929 H         1 UNK         0.2896 
@<TRIPOS>BOND
     1    1    2 1    
     2    1   67 1    
     3    1   68 1    
     4    1   69 1    
     5    2    3 2    
     6    2    4 am   BACKBONE|DICT|INTERRES
     7    4    5 1    
     8    4   70 1    
     9    5    6 1    
    10    5   65 1    
    11    5   71 1    
    12    6    7 1    
    13    6   72 1    
    14    6   73 1    
    15    7    8 1    
    16    8    9 1    
    17    8   74 1    
    18    8   75 1    
    19    9   10 ar   
    20    9   14 ar   
    21   10   11 ar   
    22   10   76 1    
    23   11   12 ar   
    24   11   48 1    
    25   12   13 ar   
    26   12   77 1    
    27   13   14 ar   
    28   13   15 1    
    29   14   78 1    
    30   15   16 1    
    31   15   79 1    
    32   15   80 1    
    33   16   17 1    
    34   17   18 1    
    35   17   81 1    
    36   17   82 1    
    37   18   19 1    
    38   18   22 1    
    39   18   83 1    
    40   19   20 am   BACKBONE|DICT|INTERRES
    41   19   21 2    
    42   20   84 1    
    43   20   85 1    
    44   22   23 am   BACKBONE|DICT|INTERRES
    45   22   86 1    
    46   23   24 2    
    47   23   25 1    
    48   25   26 1    
    49   25   27 1    
    50   25   87 1    
    51   26   88 1    
    52   26   89 1    
    53   26   90 1    
    54   27   28 am   BACKBONE|DICT|INTERRES
    55   27   91 1    
    56   28   29 2    
    57   28   30 1    
    58   30   31 1    
    59   30   32 1    
    60   30   92 1    
    61   31   93 1    
    62   31   94 1    
    63   31   95 1    
    64   32   33 am   BACKBONE|DICT|INTERRES
    65   32   96 1    
    66   33   34 2    
    67   33   35 1    
    68   35   36 1    
    69   35   37 1    
    70   35   97 1    
    71   36   98 1    
    72   36   99 1    
    73   36  100 1    
    74   37   38 am   BACKBONE|DICT|INTERRES
    75   37  101 1    
    76   38   39 2    
    77   38   40 1    
    78   40   41 1    
    79   40   42 1    
    80   40  102 1    
    81   41  103 1    
    82   41  104 1    
    83   41  105 1    
    84   42   43 am   BACKBONE|DICT|INTERRES
    85   42  106 1    
    86   43   44 2    
    87   43   45 1    
    88   45   46 1    
    89   45   49 1    
    90   45  107 1    
    91   46   47 1    
    92   46  108 1    
    93   46  109 1    
    94   47   48 1    
    95   48  110 1    
    96   48  111 1    
    97   49   50 am   BACKBONE|DICT|INTERRES
    98   49  112 1    
    99   50   51 2    
   100   50   52 1    
   101   52   53 1    
   102   52   54 1    
   103   52  113 1    
   104   53  114 1    
   105   53  115 1    
   106   53  116 1    
   107   54   55 am   BACKBONE|DICT|INTERRES
   108   54  117 1    
   109   55   56 2    
   110   55   57 1    
   111   57   58 1    
   112   57   59 1    
   113   57  118 1    
   114   58  119 1    
   115   58  120 1    
   116   58  121 1    
   117   59   60 am   BACKBONE|DICT|INTERRES
   118   59  122 1    
   119   60   61 2    
   120   60   62 1    
   121   62   63 1    
   122   62   64 1    
   123   62  123 1    
   124   63  124 1    
   125   63  125 1    
   126   63  126 1    
   127   64   65 am   BACKBONE|DICT|INTERRES
   128   64  127 1    
   129   65   66 2    
@<TRIPOS>SUBSTRUCTURE
     1 UNK         1 GROUP             0       ****    0 ROOT    
