@<TRIPOS>MOLECULE
3R135
127   129    1
SMALL
USER_CHARGES


@<TRIPOS>ATOM
      1 CA        -83.3017   28.5225  -75.3726 C.3       0 UNK        -0.1998 
      2 C         -81.9159   29.1363  -75.1880 C.2       0 UNK         0.4909 
      3 O         -81.4876   29.8959  -76.0546 O.2       0 UNK        -0.5240 
      4 N         -81.1645   28.8577  -74.1108 N.am      1 UNK        -0.4739 
      5 CA        -81.4404   27.9927  -72.9503 C.3       1 UNK         0.0864 
      6 C6        -82.4244   28.5995  -71.9104 C.3       11 UNK        -0.0881 
      7 S7        -81.9813   30.2897  -71.3820 S.3       11 UNK        -0.2682 
      8 C8        -81.0427   29.9803  -69.8520 C.3       11 UNK         0.0289 
      9 C9        -79.6160   29.5404  -70.1460 C.ar      11 UNK        -0.0687 
     10 C10       -79.2505   28.1929  -70.0491 C.ar      11 UNK        -0.0823 
     11 C11       -77.9391   27.7985  -70.3294 C.ar      11 UNK        -0.0830 
     12 C12       -76.9858   28.7647  -70.6512 C.ar      11 UNK        -0.1021 
     13 C13       -77.3424   30.1071  -70.7958 C.ar      11 UNK        -0.0753 
     14 C14       -78.6608   30.4893  -70.5284 C.ar      11 UNK        -0.0933 
     15 C15       -76.3170   31.1393  -71.2570 C.3       11 UNK         0.0166 
     16 S16       -75.5059   30.6691  -72.8286 S.3       11 UNK        -0.2615 
     17 C17       -74.0967   29.6628  -72.2416 C.3       11 UNK        -0.0865 
     18 CA        -72.7639   30.0622  -72.9237 C.3       10 UNK         0.0862 
     19 C         -71.5343   29.6273  -72.0671 C.2       10 UNK         0.5551 
     20 N         -70.5920   28.8389  -72.5696 N.am      10 UNK        -0.7319 
     21 O         -71.4279   30.0275  -70.9104 O.2       10 UNK        -0.5018 
     22 N         -72.7366   29.6031  -74.3213 N.am      10 UNK        -0.4509 
     23 C         -71.9374   30.0989  -75.2735 C.2       10 UNK         0.4899 
     24 O         -71.2163   31.0861  -75.1180 O.2       10 UNK        -0.4839 
     25 CA        -71.9268   29.3330  -76.6114 C.3       9 UNK         0.0222 
     26 CB        -70.7585   29.7429  -77.5322 C.3       9 UNK        -0.1966 
     27 N         -71.9529   27.8753  -76.4302 N.am      9 UNK        -0.4218 
     28 C         -71.0837   27.1215  -75.7365 C.2       9 UNK         0.5020 
     29 O         -70.0940   27.5777  -75.1630 O.2       9 UNK        -0.5274 
     30 CA        -71.3712   25.6124  -75.6124 C.3       8 UNK         0.0270 
     31 CB        -71.7904   25.2700  -74.1726 C.3       8 UNK        -0.1976 
     32 N         -72.3990   25.1284  -76.5365 N.am      8 UNK        -0.4313 
     33 C         -72.2306   24.9862  -77.8582 C.2       8 UNK         0.5041 
     34 O         -71.1555   25.1552  -78.4346 O.2       8 UNK        -0.5577 
     35 CA        -73.4828   24.6422  -78.6819 C.3       7 UNK         0.0284 
     36 CB        -73.7035   23.1218  -78.7170 C.3       7 UNK        -0.1958 
     37 N         -74.6945   25.3144  -78.1963 N.am      7 UNK        -0.4454 
     38 C         -74.8721   26.6444  -78.1735 C.2       7 UNK         0.5089 
     39 O         -74.0396   27.4507  -78.5862 O.2       7 UNK        -0.5125 
     40 CA        -76.1687   27.1740  -77.5408 C.3       6 UNK         0.0408 
     41 CB        -77.3539   27.0279  -78.5076 C.3       6 UNK        -0.1791 
     42 N         -76.4836   26.5173  -76.2734 N.am      6 UNK        -0.4762 
     43 C         -75.7546   26.6066  -75.1499 C.2       6 UNK         0.5007 
     44 O         -74.7424   27.3010  -75.0314 O.2       6 UNK        -0.5032 
     45 CA        -76.2309   25.7338  -73.9708 C.3       5 UNK         0.0783 
     46 C46       -77.3869   26.4412  -73.2206 C.3       11 UNK        -0.0857 
     47 S47       -78.1034   25.4687  -71.8439 S.3       11 UNK        -0.2512 
     48 C48       -77.5425   26.3293  -70.3341 C.3       11 UNK         0.0225 
     49 N         -76.5924   24.3863  -74.4251 N.am      5 UNK        -0.4615 
     50 C         -75.7392   23.5017  -74.9599 C.2       4 UNK         0.5053 
     51 O         -74.5380   23.7167  -75.1170 O.2       4 UNK        -0.5105 
     52 CA        -76.3355   22.1662  -75.4343 C.3       4 UNK         0.0263 
     53 CB        -76.5161   21.2039  -74.2497 C.3       4 UNK        -0.1981 
     54 N         -77.6129   22.3338  -76.1320 N.am      4 UNK        -0.4224 
     55 C         -77.7604   22.9673  -77.3052 C.2       3 UNK         0.4895 
     56 O         -76.8270   23.4377  -77.9526 O.2       3 UNK        -0.5091 
     57 CA        -79.1990   23.1584  -77.8163 C.3       3 UNK         0.0250 
     58 CB        -79.6686   21.9176  -78.5920 C.3       3 UNK        -0.1996 
     59 N         -80.1555   23.4679  -76.7475 N.am      3 UNK        -0.4254 
     60 C         -80.0668   24.5360  -75.9438 C.2       2 UNK         0.5004 
     61 O         -79.1786   25.3903  -76.0342 O.2       2 UNK        -0.5226 
     62 CA        -81.1057   24.6403  -74.8218 C.3       2 UNK         0.0269 
     63 CB        -80.8704   23.5436  -73.7613 C.3       2 UNK        -0.1926 
     64 N         -80.9788   25.9699  -74.2339 N.am      2 UNK        -0.4687 
     65 C         -81.7991   26.5460  -73.3513 C.2       1 UNK         0.5165 
     66 O         -82.8106   26.0045  -72.9023 O.2       1 UNK        -0.5079 
     67 H67       -83.8613   28.4651  -74.4431 H         1 UNK         0.0900 
     68 H68       -83.8902   29.1253  -76.0640 H         1 UNK         0.0900 
     69 H69       -83.2197   27.5212  -75.7942 H         1 UNK         0.0900 
     70 H70       -80.2655   29.3157  -74.0619 H         1 UNK         0.2959 
     71 H71       -80.4778   27.8973  -72.4484 H         1 UNK         0.1079 
     72 H72       -82.4779   27.9598  -71.0275 H         1 UNK         0.0837 
     73 H73       -83.4409   28.6346  -72.3001 H         1 UNK         0.0837 
     74 H74       -81.5615   29.2449  -69.2352 H         1 UNK         0.0685 
     75 H75       -81.0190   30.9006  -69.2665 H         1 UNK         0.0685 
     76 H76       -79.9894   27.4485  -69.7852 H         1 UNK         0.1434 
     77 H77       -75.9732   28.4509  -70.8457 H         1 UNK         0.1329 
     78 H78       -78.9523   31.5262  -70.6272 H         1 UNK         0.1335 
     79 H79       -75.5765   31.3009  -70.4729 H         1 UNK         0.0680 
     80 H80       -76.8032   32.1035  -71.4131 H         1 UNK         0.0680 
     81 H81       -74.3099   28.6080  -72.4235 H         1 UNK         0.1032 
     82 H82       -74.0228   29.7711  -71.1582 H         1 UNK         0.1032 
     83 H83       -72.7176   31.1530  -72.9384 H         1 UNK         0.0461 
     84 H84       -69.8111   28.5854  -71.9864 H         1 UNK         0.3453 
     85 H85       -70.6165   28.5207  -73.5325 H         1 UNK         0.3453 
     86 H86       -73.3147   28.7992  -74.5422 H         1 UNK         0.2984 
     87 H87       -72.8565   29.5937  -77.1189 H         1 UNK         0.0554 
     88 H88       -70.7997   30.8071  -77.7675 H         1 UNK         0.0847 
     89 H89       -70.7921   29.2015  -78.4776 H         1 UNK         0.0847 
     90 H90       -69.7906   29.5491  -77.0685 H         1 UNK         0.0847 
     91 H91       -72.7404   27.4086  -76.8643 H         1 UNK         0.3141 
     92 H92       -70.4398   25.0861  -75.8313 H         1 UNK         0.0743 
     93 H93       -71.0286   25.5811  -73.4563 H         1 UNK         0.0784 
     94 H94       -72.7207   25.7665  -73.8949 H         1 UNK         0.0784 
     95 H95       -71.9336   24.1967  -74.0458 H         1 UNK         0.0784 
     96 H96       -73.2977   24.8817  -76.1296 H         1 UNK         0.3213 
     97 H97       -73.3060   24.9835  -79.7040 H         1 UNK         0.0855 
     98 H98       -73.9275   22.7240  -77.7268 H         1 UNK         0.0814 
     99 H99       -72.8152   22.6058  -79.0838 H         1 UNK         0.0814 
    100 H100      -74.5278   22.8562  -79.3790 H         1 UNK         0.0814 
    101 H101      -75.4576   24.7118  -77.8938 H         1 UNK         0.3105 
    102 H102      -76.0295   28.2374  -77.3352 H         1 UNK         0.0547 
    103 H103      -78.2633   27.4573  -78.0866 H         1 UNK         0.0837 
    104 H104      -77.5583   25.9836  -78.7442 H         1 UNK         0.0837 
    105 H105      -77.1559   27.5434  -79.4482 H         1 UNK         0.0837 
    106 H106      -77.3281   25.9505  -76.2536 H         1 UNK         0.3020 
    107 H107      -75.3888   25.6322  -73.2826 H         1 UNK         0.1245 
    108 H108      -78.2032   26.6645  -73.9076 H         1 UNK         0.0781 
    109 H109      -77.0460   27.4109  -72.8647 H         1 UNK         0.0781 
    110 H110      -76.4608   26.2183  -70.2429 H         1 UNK         0.0836 
    111 H111      -77.9727   25.8329  -69.4631 H         1 UNK         0.0836 
    112 H112      -77.5684   24.1433  -74.3529 H         1 UNK         0.3022 
    113 H113      -75.6276   21.7169  -76.1340 H         1 UNK         0.0747 
    114 H114      -76.8606   20.2247  -74.5831 H         1 UNK         0.0793 
    115 H115      -75.5716   21.0514  -73.7253 H         1 UNK         0.0793 
    116 H116      -77.2347   21.5838  -73.5223 H         1 UNK         0.0793 
    117 H117      -78.4372   21.9740  -75.6742 H         1 UNK         0.3047 
    118 H118      -79.1898   24.0066  -78.5042 H         1 UNK         0.0822 
    119 H119      -80.6487   22.0779  -79.0416 H         1 UNK         0.0807 
    120 H120      -79.7322   21.0372  -77.9512 H         1 UNK         0.0807 
    121 H121      -78.9779   21.6811  -79.4028 H         1 UNK         0.0807 
    122 H122      -80.9127   22.8130  -76.6122 H         1 UNK         0.2946 
    123 H123      -82.1035   24.5388  -75.2541 H         1 UNK         0.1144 
    124 H124      -79.8686   23.6008  -73.3362 H         1 UNK         0.0793 
    125 H125      -80.9857   22.5473  -74.1890 H         1 UNK         0.0793 
    126 H126      -81.5827   23.6153  -72.9396 H         1 UNK         0.0793 
    127 H127      -80.1972   26.4946  -74.6094 H         1 UNK         0.2896 
@<TRIPOS>BOND
     1    1    2 1    
     2    1   67 1    
     3    1   68 1    
     4    1   69 1    
     5    2    3 2    
     6    2    4 am   BACKBONE|DICT|INTERRES
     7    4    5 1    
     8    4   70 1    
     9    5    6 1    
    10    5   65 1    
    11    5   71 1    
    12    6    7 1    
    13    6   72 1    
    14    6   73 1    
    15    7    8 1    
    16    8    9 1    
    17    8   74 1    
    18    8   75 1    
    19    9   10 ar   
    20    9   14 ar   
    21   10   11 ar   
    22   10   76 1    
    23   11   12 ar   
    24   11   48 1    
    25   12   13 ar   
    26   12   77 1    
    27   13   14 ar   
    28   13   15 1    
    29   14   78 1    
    30   15   16 1    
    31   15   79 1    
    32   15   80 1    
    33   16   17 1    
    34   17   18 1    
    35   17   81 1    
    36   17   82 1    
    37   18   19 1    
    38   18   22 1    
    39   18   83 1    
    40   19   20 am   BACKBONE|DICT|INTERRES
    41   19   21 2    
    42   20   84 1    
    43   20   85 1    
    44   22   23 am   BACKBONE|DICT|INTERRES
    45   22   86 1    
    46   23   24 2    
    47   23   25 1    
    48   25   26 1    
    49   25   27 1    
    50   25   87 1    
    51   26   88 1    
    52   26   89 1    
    53   26   90 1    
    54   27   28 am   BACKBONE|DICT|INTERRES
    55   27   91 1    
    56   28   29 2    
    57   28   30 1    
    58   30   31 1    
    59   30   32 1    
    60   30   92 1    
    61   31   93 1    
    62   31   94 1    
    63   31   95 1    
    64   32   33 am   BACKBONE|DICT|INTERRES
    65   32   96 1    
    66   33   34 2    
    67   33   35 1    
    68   35   36 1    
    69   35   37 1    
    70   35   97 1    
    71   36   98 1    
    72   36   99 1    
    73   36  100 1    
    74   37   38 am   BACKBONE|DICT|INTERRES
    75   37  101 1    
    76   38   39 2    
    77   38   40 1    
    78   40   41 1    
    79   40   42 1    
    80   40  102 1    
    81   41  103 1    
    82   41  104 1    
    83   41  105 1    
    84   42   43 am   BACKBONE|DICT|INTERRES
    85   42  106 1    
    86   43   44 2    
    87   43   45 1    
    88   45   46 1    
    89   45   49 1    
    90   45  107 1    
    91   46   47 1    
    92   46  108 1    
    93   46  109 1    
    94   47   48 1    
    95   48  110 1    
    96   48  111 1    
    97   49   50 am   BACKBONE|DICT|INTERRES
    98   49  112 1    
    99   50   51 2    
   100   50   52 1    
   101   52   53 1    
   102   52   54 1    
   103   52  113 1    
   104   53  114 1    
   105   53  115 1    
   106   53  116 1    
   107   54   55 am   BACKBONE|DICT|INTERRES
   108   54  117 1    
   109   55   56 2    
   110   55   57 1    
   111   57   58 1    
   112   57   59 1    
   113   57  118 1    
   114   58  119 1    
   115   58  120 1    
   116   58  121 1    
   117   59   60 am   BACKBONE|DICT|INTERRES
   118   59  122 1    
   119   60   61 2    
   120   60   62 1    
   121   62   63 1    
   122   62   64 1    
   123   62  123 1    
   124   63  124 1    
   125   63  125 1    
   126   63  126 1    
   127   64   65 am   BACKBONE|DICT|INTERRES
   128   64  127 1    
   129   65   66 2    
@<TRIPOS>SUBSTRUCTURE
     1 UNK         1 GROUP             0       ****    0 ROOT    
