@<TRIPOS>MOLECULE
3R135
127   129    1
SMALL
USER_CHARGES


@<TRIPOS>ATOM
      1 CA        -81.8023   24.7628  -71.3162 C.3       0 UNK        -0.1998 
      2 C         -82.5151   25.7610  -72.2145 C.2       0 UNK         0.4909 
      3 O         -83.4977   25.4036  -72.8650 O.2       0 UNK        -0.5240 
      4 N         -82.0376   27.0125  -72.2467 N.am      1 UNK        -0.4739 
      5 CA        -82.6284   28.1041  -73.0358 C.3       1 UNK         0.0864 
      6 C6        -82.2222   29.5037  -72.5101 C.3       11 UNK        -0.0881 
      7 S7        -82.6625   29.7243  -70.7497 S.3       11 UNK        -0.2682 
      8 C8        -81.2450   30.6718  -70.0951 C.3       11 UNK         0.0289 
      9 C9        -79.8891   30.0050  -70.3140 C.ar      11 UNK        -0.0687 
     10 C10       -79.7032   28.6383  -70.0743 C.ar      11 UNK        -0.0823 
     11 C11       -78.4616   28.0369  -70.3053 C.ar      11 UNK        -0.0830 
     12 C12       -77.3894   28.8209  -70.7413 C.ar      11 UNK        -0.1021 
     13 C13       -77.5573   30.1896  -70.9675 C.ar      11 UNK        -0.0753 
     14 C14       -78.8084   30.7745  -70.7563 C.ar      11 UNK        -0.0933 
     15 C15       -76.3872   31.0334  -71.4446 C.3       11 UNK         0.0166 
     16 S16       -76.3324   31.0956  -73.2605 S.3       11 UNK        -0.2615 
     17 C17       -74.6912   31.8549  -73.5396 C.3       11 UNK        -0.0865 
     18 CA        -73.5920   30.8297  -73.9302 C.3       10 UNK         0.0862 
     19 C         -73.0986   30.0211  -72.6949 C.2       10 UNK         0.5551 
     20 N         -73.4082   28.7356  -72.5794 N.am      10 UNK        -0.7319 
     21 O         -72.4269   30.5756  -71.8288 O.2       10 UNK        -0.5018 
     22 N         -74.0110   30.0180  -75.0832 N.am      10 UNK        -0.4509 
     23 C         -73.1991   29.3025  -75.8689 C.2       10 UNK         0.4899 
     24 O         -71.9737   29.2694  -75.7424 O.2       10 UNK        -0.4839 
     25 CA        -73.9112   28.4674  -76.9483 C.3       9 UNK         0.0222 
     26 CB        -74.6932   29.3570  -77.9400 C.3       9 UNK        -0.1966 
     27 N         -73.0244   27.5289  -77.6467 N.am      9 UNK        -0.4218 
     28 C         -72.0557   27.7897  -78.5400 C.2       9 UNK         0.5020 
     29 O         -71.8049   28.9127  -78.9808 O.2       9 UNK        -0.5274 
     30 CA        -71.2069   26.5966  -79.0316 C.3       8 UNK         0.0270 
     31 CB        -69.7177   26.8210  -78.7157 C.3       8 UNK        -0.1976 
     32 N         -71.6158   25.3168  -78.4474 N.am      8 UNK        -0.4313 
     33 C         -72.6277   24.5470  -78.8626 C.2       8 UNK         0.5041 
     34 O         -73.2912   24.7770  -79.8733 O.2       8 UNK        -0.5577 
     35 CA        -73.0005   23.3527  -77.9647 C.3       7 UNK         0.0284 
     36 CB        -72.0715   22.1462  -78.2030 C.3       7 UNK        -0.1958 
     37 N         -73.1029   23.7084  -76.5389 N.am      7 UNK        -0.4454 
     38 C         -72.1341   24.0664  -75.6833 C.2       7 UNK         0.5089 
     39 O         -70.9406   24.0781  -75.9871 O.2       7 UNK        -0.5125 
     40 CA        -72.5442   24.5484  -74.2804 C.3       6 UNK         0.0408 
     41 CB        -71.9200   25.9177  -73.9554 C.3       6 UNK        -0.1791 
     42 N         -73.9978   24.6069  -74.0678 N.am      6 UNK        -0.4762 
     43 C         -74.5903   24.3317  -72.8939 C.2       6 UNK         0.5007 
     44 O         -73.9651   24.0352  -71.8744 O.2       6 UNK        -0.5032 
     45 CA        -76.1348   24.3789  -72.8211 C.3       5 UNK         0.0783 
     46 C46       -76.6138   25.7293  -72.2340 C.3       11 UNK        -0.0857 
     47 S47       -78.3469   25.6346  -71.6709 S.3       11 UNK        -0.2512 
     48 C48       -78.2836   26.5409  -70.0904 C.3       11 UNK         0.0225 
     49 N         -76.7823   24.0895  -74.1052 N.am      5 UNK        -0.4615 
     50 C         -76.6701   22.9394  -74.7852 C.2       4 UNK         0.5053 
     51 O         -76.1041   21.9411  -74.3401 O.2       4 UNK        -0.5105 
     52 CA        -77.2448   22.8871  -76.2155 C.3       4 UNK         0.0263 
     53 CB        -78.5361   22.0528  -76.2382 C.3       4 UNK        -0.1981 
     54 N         -77.5159   24.1877  -76.8387 N.am      4 UNK        -0.4224 
     55 C         -76.6585   25.2071  -76.9991 C.2       3 UNK         0.4895 
     56 O         -75.4846   25.1847  -76.6274 O.2       3 UNK        -0.5091 
     57 CA        -77.2212   26.4927  -77.6303 C.3       3 UNK         0.0250 
     58 CB        -76.9093   26.5214  -79.1345 C.3       3 UNK        -0.1996 
     59 N         -78.6603   26.6983  -77.4203 N.am      3 UNK        -0.4254 
     60 C         -79.2605   26.7805  -76.2236 C.2       2 UNK         0.5004 
     61 O         -78.6682   26.6559  -75.1477 O.2       2 UNK        -0.5226 
     62 CA        -80.7788   26.9912  -76.2404 C.3       2 UNK         0.0269 
     63 CB        -81.5088   25.7445  -76.7775 C.3       2 UNK        -0.1926 
     64 N         -81.2317   27.2681  -74.8816 N.am      2 UNK        -0.4687 
     65 C         -82.3177   27.9718  -74.5419 C.2       1 UNK         0.5165 
     66 O         -83.0703   28.4984  -75.3632 O.2       1 UNK        -0.5079 
     67 H67       -81.1563   24.1168  -71.9102 H         1 UNK         0.0900 
     68 H68       -81.1935   25.2623  -70.5637 H         1 UNK         0.0900 
     69 H69       -82.5271   24.1367  -70.7965 H         1 UNK         0.0900 
     70 H70       -81.2214   27.2556  -71.7044 H         1 UNK         0.2959 
     71 H71       -83.7143   28.0260  -72.9431 H         1 UNK         0.1079 
     72 H72       -82.7269   30.2869  -73.0792 H         1 UNK         0.0837 
     73 H73       -81.1531   29.6666  -72.6558 H         1 UNK         0.0837 
     74 H74       -81.2620   31.6632  -70.5508 H         1 UNK         0.0685 
     75 H75       -81.3901   30.8226  -69.0248 H         1 UNK         0.0685 
     76 H76       -80.5320   28.0416  -69.7191 H         1 UNK         0.1434 
     77 H77       -76.4246   28.3660  -70.9174 H         1 UNK         0.1329 
     78 H78       -78.9383   31.8322  -70.9410 H         1 UNK         0.1335 
     79 H79       -76.4641   32.0473  -71.0489 H         1 UNK         0.0680 
     80 H80       -75.4547   30.6208  -71.0577 H         1 UNK         0.0680 
     81 H81       -74.8015   32.5819  -74.3456 H         1 UNK         0.1032 
     82 H82       -74.3927   32.4405  -72.6675 H         1 UNK         0.1032 
     83 H83       -72.7266   31.4091  -74.2581 H         1 UNK         0.0461 
     84 H84       -73.9727   28.2861  -73.2795 H         1 UNK         0.3453 
     85 H85       -73.0836   28.2232  -71.7757 H         1 UNK         0.3453 
     86 H86       -75.0088   29.9763  -75.2330 H         1 UNK         0.2984 
     87 H87       -74.6252   27.8377  -76.4183 H         1 UNK         0.0554 
     88 H88       -75.1027   28.7745  -78.7641 H         1 UNK         0.0847 
     89 H89       -74.0625   30.1364  -78.3690 H         1 UNK         0.0847 
     90 H90       -75.5310   29.8553  -77.4516 H         1 UNK         0.0847 
     91 H91       -73.1345   26.5629  -77.3756 H         1 UNK         0.3141 
     92 H92       -71.3230   26.5417  -80.1160 H         1 UNK         0.0743 
     93 H93       -69.5426   26.9028  -77.6420 H         1 UNK         0.0784 
     94 H94       -69.1036   26.0042  -79.0955 H         1 UNK         0.0784 
     95 H95       -69.3519   27.7396  -79.1767 H         1 UNK         0.0784 
     96 H96       -71.1332   25.0190  -77.6014 H         1 UNK         0.3213 
     97 H97       -74.0070   23.0490  -78.2582 H         1 UNK         0.0855 
     98 H98       -71.0299   22.3739  -77.9758 H         1 UNK         0.0814 
     99 H99       -72.1102   21.8302  -79.2463 H         1 UNK         0.0814 
    100 H100      -72.3686   21.2921  -77.5946 H         1 UNK         0.0814 
    101 H101      -74.0584   23.8350  -76.2288 H         1 UNK         0.3105 
    102 H102      -72.1135   23.8126  -73.5982 H         1 UNK         0.0547 
    103 H103      -70.8376   25.9061  -74.0898 H         1 UNK         0.0837 
    104 H104      -72.3186   26.7025  -74.5969 H         1 UNK         0.0837 
    105 H105      -72.1058   26.1999  -72.9197 H         1 UNK         0.0837 
    106 H106      -74.5773   24.8776  -74.8567 H         1 UNK         0.3020 
    107 H107      -76.4229   23.5833  -72.1300 H         1 UNK         0.1245 
    108 H108      -76.5250   26.5308  -72.9701 H         1 UNK         0.0781 
    109 H109      -75.9873   26.0206  -71.3892 H         1 UNK         0.0781 
    110 H110      -77.3481   26.3402  -69.5666 H         1 UNK         0.0836 
    111 H111      -79.0726   26.1596  -69.4407 H         1 UNK         0.0836 
    112 H112      -77.2988   24.8541  -74.5229 H         1 UNK         0.3022 
    113 H113      -76.5004   22.3846  -76.8362 H         1 UNK         0.0747 
    114 H114      -78.8994   21.9077  -77.2558 H         1 UNK         0.0793 
    115 H115      -78.3706   21.0617  -75.8131 H         1 UNK         0.0793 
    116 H116      -79.3311   22.5264  -75.6603 H         1 UNK         0.0793 
    117 H117      -78.4587   24.3283  -77.1696 H         1 UNK         0.3047 
    118 H118      -76.7139   27.3324  -77.1560 H         1 UNK         0.0822 
    119 H119      -77.4291   25.7264  -79.6706 H         1 UNK         0.0807 
    120 H120      -75.8408   26.3885  -79.3145 H         1 UNK         0.0807 
    121 H121      -77.1957   27.4728  -79.5829 H         1 UNK         0.0807 
    122 H122      -79.2231   26.8035  -78.2527 H         1 UNK         0.2946 
    123 H123      -80.9938   27.8522  -76.8778 H         1 UNK         0.1144 
    124 H124      -82.5892   25.8903  -76.7834 H         1 UNK         0.0793 
    125 H125      -81.2969   24.8631  -76.1706 H         1 UNK         0.0793 
    126 H126      -81.2129   25.5175  -77.8022 H         1 UNK         0.0793 
    127 H127      -80.6165   26.9197  -74.1561 H         1 UNK         0.2896 
@<TRIPOS>BOND
     1    1    2 1    
     2    1   67 1    
     3    1   68 1    
     4    1   69 1    
     5    2    3 2    
     6    2    4 am   BACKBONE|DICT|INTERRES
     7    4    5 1    
     8    4   70 1    
     9    5    6 1    
    10    5   65 1    
    11    5   71 1    
    12    6    7 1    
    13    6   72 1    
    14    6   73 1    
    15    7    8 1    
    16    8    9 1    
    17    8   74 1    
    18    8   75 1    
    19    9   10 ar   
    20    9   14 ar   
    21   10   11 ar   
    22   10   76 1    
    23   11   12 ar   
    24   11   48 1    
    25   12   13 ar   
    26   12   77 1    
    27   13   14 ar   
    28   13   15 1    
    29   14   78 1    
    30   15   16 1    
    31   15   79 1    
    32   15   80 1    
    33   16   17 1    
    34   17   18 1    
    35   17   81 1    
    36   17   82 1    
    37   18   19 1    
    38   18   22 1    
    39   18   83 1    
    40   19   20 am   BACKBONE|DICT|INTERRES
    41   19   21 2    
    42   20   84 1    
    43   20   85 1    
    44   22   23 am   BACKBONE|DICT|INTERRES
    45   22   86 1    
    46   23   24 2    
    47   23   25 1    
    48   25   26 1    
    49   25   27 1    
    50   25   87 1    
    51   26   88 1    
    52   26   89 1    
    53   26   90 1    
    54   27   28 am   BACKBONE|DICT|INTERRES
    55   27   91 1    
    56   28   29 2    
    57   28   30 1    
    58   30   31 1    
    59   30   32 1    
    60   30   92 1    
    61   31   93 1    
    62   31   94 1    
    63   31   95 1    
    64   32   33 am   BACKBONE|DICT|INTERRES
    65   32   96 1    
    66   33   34 2    
    67   33   35 1    
    68   35   36 1    
    69   35   37 1    
    70   35   97 1    
    71   36   98 1    
    72   36   99 1    
    73   36  100 1    
    74   37   38 am   BACKBONE|DICT|INTERRES
    75   37  101 1    
    76   38   39 2    
    77   38   40 1    
    78   40   41 1    
    79   40   42 1    
    80   40  102 1    
    81   41  103 1    
    82   41  104 1    
    83   41  105 1    
    84   42   43 am   BACKBONE|DICT|INTERRES
    85   42  106 1    
    86   43   44 2    
    87   43   45 1    
    88   45   46 1    
    89   45   49 1    
    90   45  107 1    
    91   46   47 1    
    92   46  108 1    
    93   46  109 1    
    94   47   48 1    
    95   48  110 1    
    96   48  111 1    
    97   49   50 am   BACKBONE|DICT|INTERRES
    98   49  112 1    
    99   50   51 2    
   100   50   52 1    
   101   52   53 1    
   102   52   54 1    
   103   52  113 1    
   104   53  114 1    
   105   53  115 1    
   106   53  116 1    
   107   54   55 am   BACKBONE|DICT|INTERRES
   108   54  117 1    
   109   55   56 2    
   110   55   57 1    
   111   57   58 1    
   112   57   59 1    
   113   57  118 1    
   114   58  119 1    
   115   58  120 1    
   116   58  121 1    
   117   59   60 am   BACKBONE|DICT|INTERRES
   118   59  122 1    
   119   60   61 2    
   120   60   62 1    
   121   62   63 1    
   122   62   64 1    
   123   62  123 1    
   124   63  124 1    
   125   63  125 1    
   126   63  126 1    
   127   64   65 am   BACKBONE|DICT|INTERRES
   128   64  127 1    
   129   65   66 2    
@<TRIPOS>SUBSTRUCTURE
     1 UNK         1 GROUP             0       ****    0 ROOT    
