@<TRIPOS>MOLECULE
3R135
127   129    1
SMALL
USER_CHARGES


@<TRIPOS>ATOM
      1 CA        -81.9012   24.3470  -67.8836 C.3       0 UNK        -0.1998 
      2 C         -81.9571   24.9970  -69.2579 C.2       0 UNK         0.4909 
      3 O         -83.0014   25.5229  -69.6437 O.2       0 UNK        -0.5240 
      4 N         -80.8398   24.9678  -69.9977 N.am      1 UNK        -0.4739 
      5 CA        -80.7188   25.5185  -71.3545 C.3       1 UNK         0.0864 
      6 C6        -79.2288   25.6489  -71.7692 C.3       11 UNK        -0.0881 
      7 S7        -78.9480   26.9253  -73.0425 S.3       11 UNK        -0.2682 
      8 C8        -78.2640   28.2754  -72.0225 C.3       11 UNK         0.0289 
      9 C9        -77.8488   29.5404  -72.7771 C.ar      11 UNK        -0.0687 
     10 C10       -78.2646   29.8266  -74.0870 C.ar      11 UNK        -0.0823 
     11 C11       -77.8801   31.0186  -74.7109 C.ar      11 UNK        -0.0830 
     12 C12       -77.0728   31.9269  -74.0226 C.ar      11 UNK        -0.1021 
     13 C13       -76.6513   31.6580  -72.7197 C.ar      11 UNK        -0.0753 
     14 C14       -77.0448   30.4672  -72.1040 C.ar      11 UNK        -0.0933 
     15 C15       -75.7960   32.6738  -71.9779 C.3       11 UNK         0.0166 
     16 S16       -74.0382   32.5249  -72.4204 S.3       11 UNK        -0.2615 
     17 C17       -73.5075   31.1828  -71.3056 C.3       11 UNK        -0.0865 
     18 CA        -72.1791   30.5272  -71.7610 C.3       10 UNK         0.0862 
     19 C         -71.5988   29.6127  -70.6401 C.2       10 UNK         0.5551 
     20 N         -71.4334   28.3114  -70.8427 N.am      10 UNK        -0.7319 
     21 O         -71.2842   30.1023  -69.5579 O.2       10 UNK        -0.5018 
     22 N         -72.3174   29.8811  -73.0771 N.am      10 UNK        -0.4509 
     23 C         -71.2955   29.5717  -73.8844 C.2       10 UNK         0.4899 
     24 O         -70.1269   29.8873  -73.6522 O.2       10 UNK        -0.4839 
     25 CA        -71.6352   28.7686  -75.1593 C.3       9 UNK         0.0222 
     26 CB        -70.4027   28.0499  -75.7465 C.3       9 UNK        -0.1966 
     27 N         -72.7400   27.8103  -75.0076 N.am      9 UNK        -0.4218 
     28 C         -72.8612   26.8424  -74.0837 C.2       9 UNK         0.5020 
     29 O         -72.0880   26.6849  -73.1382 O.2       9 UNK        -0.5274 
     30 CA        -74.0408   25.8724  -74.2542 C.3       8 UNK         0.0270 
     31 CB        -75.3744   26.5530  -73.9036 C.3       8 UNK        -0.1976 
     32 N         -74.1090   25.3172  -75.6063 N.am      8 UNK        -0.4313 
     33 C         -73.1849   24.5200  -76.1632 C.2       8 UNK         0.5041 
     34 O         -72.1953   24.0896  -75.5699 O.2       8 UNK        -0.5577 
     35 CA        -73.3915   24.1516  -77.6402 C.3       7 UNK         0.0284 
     36 CB        -74.3725   22.9760  -77.7861 C.3       7 UNK        -0.1958 
     37 N         -73.8681   25.3024  -78.4100 N.am      7 UNK        -0.4454 
     38 C         -73.0696   26.2605  -78.9017 C.2       7 UNK         0.5089 
     39 O         -71.8408   26.2258  -78.8364 O.2       7 UNK        -0.5125 
     40 CA        -73.7437   27.4620  -79.5913 C.3       6 UNK         0.0408 
     41 CB        -73.7449   27.2697  -81.1161 C.3       6 UNK        -0.1791 
     42 N         -75.1144   27.7150  -79.1384 N.am      6 UNK        -0.4762 
     43 C         -75.4455   28.1791  -77.9240 C.2       6 UNK         0.5007 
     44 O         -74.6244   28.4372  -77.0432 O.2       6 UNK        -0.5032 
     45 CA        -76.9575   28.2948  -77.6248 C.3       5 UNK         0.0783 
     46 C46       -77.5686   29.5950  -78.2012 C.3       11 UNK        -0.0857 
     47 S47       -77.0296   31.1093  -77.3410 S.3       11 UNK        -0.2512 
     48 C48       -78.3544   31.3580  -76.1155 C.3       11 UNK         0.0225 
     49 N         -77.7148   27.1233  -78.0879 N.am      5 UNK        -0.4615 
     50 C         -77.4723   25.8567  -77.7324 C.2       4 UNK         0.5053 
     51 O         -76.5358   25.5186  -77.0065 O.2       4 UNK        -0.5105 
     52 CA        -78.3829   24.7798  -78.3447 C.3       4 UNK         0.0263 
     53 CB        -77.8048   24.2975  -79.6853 C.3       4 UNK        -0.1981 
     54 N         -78.5242   23.6344  -77.4434 N.am      4 UNK        -0.4224 
     55 C         -79.1580   23.6849  -76.2651 C.2       3 UNK         0.4895 
     56 O         -79.8032   24.6623  -75.8792 O.2       3 UNK        -0.5091 
     57 CA        -78.9987   22.4504  -75.3597 C.3       3 UNK         0.0250 
     58 CB        -77.5860   22.4195  -74.7476 C.3       3 UNK        -0.1996 
     59 N         -79.9745   22.4491  -74.2700 N.am      3 UNK        -0.4254 
     60 C         -81.2829   22.1870  -74.3945 C.2       2 UNK         0.5004 
     61 O         -81.8066   21.7796  -75.4325 O.2       2 UNK        -0.5226 
     62 CA        -82.1552   22.4156  -73.1448 C.3       2 UNK         0.0269 
     63 CB        -82.4171   21.0868  -72.4171 C.3       2 UNK        -0.1926 
     64 N         -81.5567   23.3694  -72.2033 N.am      2 UNK        -0.4687 
     65 C         -81.5246   24.6990  -72.3876 C.2       1 UNK         0.5165 
     66 O         -82.1044   25.2726  -73.3103 O.2       1 UNK        -0.5079 
     67 H67       -82.1340   25.0806  -67.1122 H         1 UNK         0.0900 
     68 H68       -80.9176   23.9299  -67.6685 H         1 UNK         0.0900 
     69 H69       -82.6324   23.5416  -67.8199 H         1 UNK         0.0900 
     70 H70       -80.0106   24.5309  -69.6202 H         1 UNK         0.2959 
     71 H71       -81.1566   26.5194  -71.3291 H         1 UNK         0.1079 
     72 H72       -78.6194   25.9006  -70.8998 H         1 UNK         0.0837 
     73 H73       -78.8292   24.6998  -72.1314 H         1 UNK         0.0837 
     74 H74       -77.3967   27.8877  -71.4856 H         1 UNK         0.0685 
     75 H75       -79.0030   28.5496  -71.2683 H         1 UNK         0.0685 
     76 H76       -78.9004   29.1365  -74.6227 H         1 UNK         0.1434 
     77 H77       -76.7741   32.8494  -74.5021 H         1 UNK         0.1329 
     78 H78       -76.7323   30.2645  -71.0886 H         1 UNK         0.1335 
     79 H79       -75.9180   32.5720  -70.8983 H         1 UNK         0.0680 
     80 H80       -76.1337   33.6813  -72.2259 H         1 UNK         0.0680 
     81 H81       -73.4067   31.6128  -70.3069 H         1 UNK         0.1032 
     82 H82       -74.2911   30.4277  -71.2344 H         1 UNK         0.1032 
     83 H83       -71.4499   31.3317  -71.8759 H         1 UNK         0.0461 
     84 H84       -71.6753   27.8766  -71.7294 H         1 UNK         0.3453 
     85 H85       -71.0517   27.7461  -70.1018 H         1 UNK         0.3453 
     86 H86       -73.2478   29.5949  -73.3419 H         1 UNK         0.2984 
     87 H87       -71.9727   29.5000  -75.8949 H         1 UNK         0.0554 
     88 H88       -70.6539   27.5191  -76.6648 H         1 UNK         0.0847 
     89 H89       -69.9894   27.3248  -75.0444 H         1 UNK         0.0847 
     90 H90       -69.6103   28.7582  -75.9913 H         1 UNK         0.0847 
     91 H91       -73.4654   27.8850  -75.7203 H         1 UNK         0.3141 
     92 H92       -73.8923   25.0409  -73.5622 H         1 UNK         0.0743 
     93 H93       -75.3566   26.9502  -72.8881 H         1 UNK         0.0784 
     94 H94       -75.6018   27.3822  -74.5744 H         1 UNK         0.0784 
     95 H95       -76.2028   25.8465  -73.9609 H         1 UNK         0.0784 
     96 H96       -74.9376   25.5471  -76.1528 H         1 UNK         0.3213 
     97 H97       -72.4274   23.8309  -78.0419 H         1 UNK         0.0855 
     98 H98       -75.3587   23.2125  -77.3886 H         1 UNK         0.0814 
     99 H99       -74.0087   22.1003  -77.2471 H         1 UNK         0.0814 
    100 H100      -74.4911   22.6866  -78.8302 H         1 UNK         0.0814 
    101 H101      -74.8686   25.4405  -78.4497 H         1 UNK         0.3105 
    102 H102      -73.1457   28.3466  -79.3611 H         1 UNK         0.0547 
    103 H103      -74.3416   26.4070  -81.4152 H         1 UNK         0.0837 
    104 H104      -74.1404   28.1473  -81.6277 H         1 UNK         0.0837 
    105 H105      -72.7324   27.1096  -81.4896 H         1 UNK         0.0837 
    106 H106      -75.8560   27.5126  -79.7935 H         1 UNK         0.3020 
    107 H107      -77.0625   28.3195  -76.5375 H         1 UNK         0.1245 
    108 H108      -78.6578   29.5480  -78.1658 H         1 UNK         0.0781 
    109 H109      -77.3231   29.6996  -79.2599 H         1 UNK         0.0781 
    110 H110      -78.6615   32.4046  -76.1459 H         1 UNK         0.0836 
    111 H111      -79.2445   30.7825  -76.3720 H         1 UNK         0.0836 
    112 H112      -78.4925   27.3108  -78.7042 H         1 UNK         0.3022 
    113 H113      -79.3731   25.2073  -78.5169 H         1 UNK         0.0747 
    114 H114      -77.7143   25.1219  -80.3939 H         1 UNK         0.0793 
    115 H115      -78.4478   23.5477  -80.1469 H         1 UNK         0.0793 
    116 H116      -76.8127   23.8600  -79.5666 H         1 UNK         0.0793 
    117 H117      -77.9948   22.8076  -77.6771 H         1 UNK         0.3047 
    118 H118      -79.1488   21.5526  -75.9632 H         1 UNK         0.0822 
    119 H119      -76.8201   22.3535  -75.5210 H         1 UNK         0.0807 
    120 H120      -77.4541   21.5580  -74.0927 H         1 UNK         0.0807 
    121 H121      -77.3790   23.3196  -74.1664 H         1 UNK         0.0807 
    122 H122      -79.6540   22.8029  -73.3825 H         1 UNK         0.2946 
    123 H123      -83.1129   22.8161  -73.4858 H         1 UNK         0.1144 
    124 H124      -82.8886   20.3638  -73.0845 H         1 UNK         0.0793 
    125 H125      -83.0862   21.2249  -71.5675 H         1 UNK         0.0793 
    126 H126      -81.4939   20.6369  -72.0497 H         1 UNK         0.0793 
    127 H127      -81.0968   22.9855  -71.3903 H         1 UNK         0.2896 
@<TRIPOS>BOND
     1    1    2 1    
     2    1   67 1    
     3    1   68 1    
     4    1   69 1    
     5    2    3 2    
     6    2    4 am   BACKBONE|DICT|INTERRES
     7    4    5 1    
     8    4   70 1    
     9    5    6 1    
    10    5   65 1    
    11    5   71 1    
    12    6    7 1    
    13    6   72 1    
    14    6   73 1    
    15    7    8 1    
    16    8    9 1    
    17    8   74 1    
    18    8   75 1    
    19    9   10 ar   
    20    9   14 ar   
    21   10   11 ar   
    22   10   76 1    
    23   11   12 ar   
    24   11   48 1    
    25   12   13 ar   
    26   12   77 1    
    27   13   14 ar   
    28   13   15 1    
    29   14   78 1    
    30   15   16 1    
    31   15   79 1    
    32   15   80 1    
    33   16   17 1    
    34   17   18 1    
    35   17   81 1    
    36   17   82 1    
    37   18   19 1    
    38   18   22 1    
    39   18   83 1    
    40   19   20 am   BACKBONE|DICT|INTERRES
    41   19   21 2    
    42   20   84 1    
    43   20   85 1    
    44   22   23 am   BACKBONE|DICT|INTERRES
    45   22   86 1    
    46   23   24 2    
    47   23   25 1    
    48   25   26 1    
    49   25   27 1    
    50   25   87 1    
    51   26   88 1    
    52   26   89 1    
    53   26   90 1    
    54   27   28 am   BACKBONE|DICT|INTERRES
    55   27   91 1    
    56   28   29 2    
    57   28   30 1    
    58   30   31 1    
    59   30   32 1    
    60   30   92 1    
    61   31   93 1    
    62   31   94 1    
    63   31   95 1    
    64   32   33 am   BACKBONE|DICT|INTERRES
    65   32   96 1    
    66   33   34 2    
    67   33   35 1    
    68   35   36 1    
    69   35   37 1    
    70   35   97 1    
    71   36   98 1    
    72   36   99 1    
    73   36  100 1    
    74   37   38 am   BACKBONE|DICT|INTERRES
    75   37  101 1    
    76   38   39 2    
    77   38   40 1    
    78   40   41 1    
    79   40   42 1    
    80   40  102 1    
    81   41  103 1    
    82   41  104 1    
    83   41  105 1    
    84   42   43 am   BACKBONE|DICT|INTERRES
    85   42  106 1    
    86   43   44 2    
    87   43   45 1    
    88   45   46 1    
    89   45   49 1    
    90   45  107 1    
    91   46   47 1    
    92   46  108 1    
    93   46  109 1    
    94   47   48 1    
    95   48  110 1    
    96   48  111 1    
    97   49   50 am   BACKBONE|DICT|INTERRES
    98   49  112 1    
    99   50   51 2    
   100   50   52 1    
   101   52   53 1    
   102   52   54 1    
   103   52  113 1    
   104   53  114 1    
   105   53  115 1    
   106   53  116 1    
   107   54   55 am   BACKBONE|DICT|INTERRES
   108   54  117 1    
   109   55   56 2    
   110   55   57 1    
   111   57   58 1    
   112   57   59 1    
   113   57  118 1    
   114   58  119 1    
   115   58  120 1    
   116   58  121 1    
   117   59   60 am   BACKBONE|DICT|INTERRES
   118   59  122 1    
   119   60   61 2    
   120   60   62 1    
   121   62   63 1    
   122   62   64 1    
   123   62  123 1    
   124   63  124 1    
   125   63  125 1    
   126   63  126 1    
   127   64   65 am   BACKBONE|DICT|INTERRES
   128   64  127 1    
   129   65   66 2    
@<TRIPOS>SUBSTRUCTURE
     1 UNK         1 GROUP             0       ****    0 ROOT    
