@<TRIPOS>MOLECULE
3R135
127   129    1
SMALL
USER_CHARGES


@<TRIPOS>ATOM
      1 CA        -82.7956   26.6029  -76.3874 C.3       0 UNK        -0.1998 
      2 C         -81.7570   26.4559  -75.2859 C.2       0 UNK         0.4909 
      3 O         -80.5629   26.4573  -75.5767 O.2       0 UNK        -0.5240 
      4 N         -82.2082   26.3420  -74.0310 N.am      1 UNK        -0.4739 
      5 CA        -81.3691   26.1320  -72.8461 C.3       1 UNK         0.0864 
      6 C6        -81.9050   26.9535  -71.6436 C.3       11 UNK        -0.0881 
      7 S7        -80.5822   27.4502  -70.4852 S.3       11 UNK        -0.2682 
      8 C8        -80.5670   29.2603  -70.6739 C.3       11 UNK         0.0289 
      9 C9        -79.6364   29.7261  -71.7861 C.ar      11 UNK        -0.0687 
     10 C10       -80.0840   29.8092  -73.1101 C.ar      11 UNK        -0.0823 
     11 C11       -79.2564   30.3278  -74.1138 C.ar      11 UNK        -0.0830 
     12 C12       -77.9765   30.7788  -73.7676 C.ar      11 UNK        -0.1021 
     13 C13       -77.5006   30.6601  -72.4604 C.ar      11 UNK        -0.0753 
     14 C14       -78.3353   30.1316  -71.4733 C.ar      11 UNK        -0.0933 
     15 C15       -76.0958   31.1359  -72.1155 C.3       11 UNK         0.0166 
     16 S16       -74.8269   30.3152  -73.1320 S.3       11 UNK        -0.2615 
     17 C17       -74.8997   28.6002  -72.5063 C.3       11 UNK        -0.0865 
     18 CA        -73.4832   27.9951  -72.3283 C.3       10 UNK         0.0862 
     19 C         -73.5296   26.6179  -71.6019 C.2       10 UNK         0.5551 
     20 N         -72.9410   25.5511  -72.1312 N.am      10 UNK        -0.7319 
     21 O         -74.1042   26.5180  -70.5209 O.2       10 UNK        -0.5018 
     22 N         -72.7410   27.9808  -73.5988 N.am      10 UNK        -0.4509 
     23 C         -71.4068   28.0332  -73.7004 C.2       10 UNK         0.4899 
     24 O         -70.6538   28.1820  -72.7363 O.2       10 UNK        -0.4839 
     25 CA        -70.8185   27.8778  -75.1179 C.3       9 UNK         0.0222 
     26 CB        -69.3166   27.5228  -75.1087 C.3       9 UNK        -0.1966 
     27 N         -71.5657   26.9292  -75.9535 N.am      9 UNK        -0.4218 
     28 C         -71.8297   25.6396  -75.6842 C.2       9 UNK         0.5020 
     29 O         -71.4297   25.0635  -74.6712 O.2       9 UNK        -0.5274 
     30 CA        -72.7220   24.8635  -76.6717 C.3       8 UNK         0.0270 
     31 CB        -73.8819   24.1816  -75.9282 C.3       8 UNK        -0.1976 
     32 N         -73.2755   25.7232  -77.7204 N.am      8 UNK        -0.4313 
     33 C         -72.7242   25.9197  -78.9256 C.2       8 UNK         0.5041 
     34 O         -71.7323   25.3143  -79.3328 O.2       8 UNK        -0.5577 
     35 CA        -73.3530   27.0122  -79.8108 C.3       7 UNK         0.0284 
     36 CB        -74.3939   26.4110  -80.7685 C.3       7 UNK        -0.1958 
     37 N         -73.9606   28.0987  -79.0341 N.am      7 UNK        -0.4454 
     38 C         -73.2712   28.9600  -78.2701 C.2       7 UNK         0.5089 
     39 O         -72.0441   28.9557  -78.1824 O.2       7 UNK        -0.5125 
     40 CA        -74.0749   29.9554  -77.4143 C.3       6 UNK         0.0408 
     41 CB        -74.1960   31.3084  -78.1309 C.3       6 UNK        -0.1791 
     42 N         -75.4113   29.4775  -77.0536 N.am      6 UNK        -0.4762 
     43 C         -75.6729   28.4011  -76.3007 C.2       6 UNK         0.5007 
     44 O         -74.7875   27.6955  -75.8059 O.2       6 UNK        -0.5032 
     45 CA        -77.1631   28.0522  -76.0698 C.3       5 UNK         0.0783 
     46 C46       -78.1579   28.6831  -77.0898 C.3       11 UNK        -0.0857 
     47 S47       -78.4981   30.4586  -76.8459 S.3       11 UNK        -0.2512 
     48 C48       -79.7874   30.4393  -75.5450 C.3       11 UNK         0.0225 
     49 N         -77.3844   26.6099  -75.9702 N.am      5 UNK        -0.4615 
     50 C         -77.1188   25.6816  -76.8937 C.2       4 UNK         0.5053 
     51 O         -76.4819   25.9077  -77.9243 O.2       4 UNK        -0.5105 
     52 CA        -77.6959   24.2725  -76.6317 C.3       4 UNK         0.0263 
     53 CB        -77.4446   23.3066  -77.8060 C.3       4 UNK        -0.1981 
     54 N         -77.2413   23.6378  -75.3870 N.am      4 UNK        -0.4224 
     55 C         -77.5764   24.0149  -74.1464 C.2       3 UNK         0.4895 
     56 O         -78.2139   25.0377  -73.8826 O.2       3 UNK        -0.5091 
     57 CA        -77.1340   23.1026  -72.9946 C.3       3 UNK         0.0250 
     58 CB        -75.7728   23.5498  -72.4417 C.3       3 UNK        -0.1996 
     59 N         -78.1405   23.2329  -71.9457 N.am      3 UNK        -0.4254 
     60 C         -79.1391   22.3713  -71.7242 C.2       2 UNK         0.5004 
     61 O         -79.1714   21.2169  -72.1517 O.2       2 UNK        -0.5226 
     62 CA        -80.3356   22.9327  -70.9382 C.3       2 UNK         0.0269 
     63 CB        -80.0617   22.9110  -69.4256 C.3       2 UNK        -0.1926 
     64 N         -80.6599   24.3010  -71.3617 N.am      2 UNK        -0.4687 
     65 C         -81.2376   24.6219  -72.5294 C.2       1 UNK         0.5165 
     66 O         -81.6621   23.7768  -73.3230 O.2       1 UNK        -0.5079 
     67 H67       -82.6331   27.5320  -76.9330 H         1 UNK         0.0900 
     68 H68       -83.8115   26.6139  -75.9930 H         1 UNK         0.0900 
     69 H69       -82.7131   25.7753  -77.0913 H         1 UNK         0.0900 
     70 H70       -83.2043   26.2967  -73.8696 H         1 UNK         0.2959 
     71 H71       -80.3610   26.4856  -73.0768 H         1 UNK         0.1079 
     72 H72       -82.4031   27.8552  -72.0020 H         1 UNK         0.0837 
     73 H73       -82.6747   26.4065  -71.0951 H         1 UNK         0.0837 
     74 H74       -81.5768   29.6377  -70.8403 H         1 UNK         0.0685 
     75 H75       -80.2481   29.6952  -69.7254 H         1 UNK         0.0685 
     76 H76       -81.0879   29.4901  -73.3549 H         1 UNK         0.1434 
     77 H77       -77.3289   31.2160  -74.5142 H         1 UNK         0.1329 
     78 H78       -77.9830   30.0612  -70.4532 H         1 UNK         0.1335 
     79 H79       -75.8708   30.9776  -71.0596 H         1 UNK         0.0680 
     80 H80       -76.0384   32.2119  -72.2850 H         1 UNK         0.0680 
     81 H81       -75.4962   27.9948  -73.1903 H         1 UNK         0.1032 
     82 H82       -75.4368   28.5951  -71.5559 H         1 UNK         0.1032 
     83 H83       -72.9478   28.6545  -71.6424 H         1 UNK         0.0461 
     84 H84       -72.4347   25.6054  -73.0080 H         1 UNK         0.3453 
     85 H85       -72.9750   24.6785  -71.6307 H         1 UNK         0.3453 
     86 H86       -73.3024   27.8529  -74.4349 H         1 UNK         0.2984 
     87 H87       -70.9243   28.8526  -75.5958 H         1 UNK         0.0554 
     88 H88       -68.9222   27.4421  -76.1215 H         1 UNK         0.0847 
     89 H89       -69.1280   26.5776  -74.5985 H         1 UNK         0.0847 
     90 H90       -68.7350   28.2904  -74.5969 H         1 UNK         0.0847 
     91 H91       -71.9337   27.3190  -76.8130 H         1 UNK         0.3141 
     92 H92       -72.1037   24.0837  -77.1207 H         1 UNK         0.0743 
     93 H93       -74.5072   24.9076  -75.4066 H         1 UNK         0.0784 
     94 H94       -74.5116   23.6208  -76.6166 H         1 UNK         0.0784 
     95 H95       -73.5104   23.4745  -75.1856 H         1 UNK         0.0784 
     96 H96       -74.0992   26.2596  -77.4693 H         1 UNK         0.3213 
     97 H97       -72.5503   27.4437  -80.4131 H         1 UNK         0.0855 
     98 H98       -75.2296   25.9618  -80.2320 H         1 UNK         0.0814 
     99 H99       -73.9478   25.6293  -81.3850 H         1 UNK         0.0814 
    100 H100      -74.7949   27.1658  -81.4451 H         1 UNK         0.0814 
    101 H101      -74.9697   28.1470  -79.0239 H         1 UNK         0.3105 
    102 H102      -73.5206   30.1093  -76.4858 H         1 UNK         0.0547 
    103 H103      -74.7662   31.2266  -79.0571 H         1 UNK         0.0837 
    104 H104      -74.6848   32.0499  -77.4988 H         1 UNK         0.0837 
    105 H105      -73.2118   31.7031  -78.3877 H         1 UNK         0.0837 
    106 H106      -76.1976   30.0176  -77.3921 H         1 UNK         0.3020 
    107 H107      -77.3997   28.4329  -75.0771 H         1 UNK         0.1245 
    108 H108      -77.8139   28.5257  -78.1138 H         1 UNK         0.0781 
    109 H109      -79.1182   28.1681  -77.0382 H         1 UNK         0.0781 
    110 H110      -80.3571   31.3664  -75.6193 H         1 UNK         0.0836 
    111 H111      -80.4912   29.6310  -75.7505 H         1 UNK         0.0836 
    112 H112      -77.8772   26.2887  -75.1382 H         1 UNK         0.3022 
    113 H113      -78.7776   24.4025  -76.5507 H         1 UNK         0.0747 
    114 H114      -77.9390   22.3483  -77.6464 H         1 UNK         0.0793 
    115 H115      -77.8365   23.7167  -78.7378 H         1 UNK         0.0793 
    116 H116      -76.3822   23.1171  -77.9587 H         1 UNK         0.0793 
    117 H117      -76.6862   22.8019  -75.4981 H         1 UNK         0.3047 
    118 H118      -77.0666   22.0701  -73.3442 H         1 UNK         0.0822 
    119 H119      -75.4742   22.9436  -71.5864 H         1 UNK         0.0807 
    120 H120      -75.7921   24.5923  -72.1212 H         1 UNK         0.0807 
    121 H121      -74.9913   23.4540  -73.1954 H         1 UNK         0.0807 
    122 H122      -78.2658   24.1741  -71.6012 H         1 UNK         0.2946 
    123 H123      -81.1971   22.2921  -71.1414 H         1 UNK         0.1144 
    124 H124      -80.9313   23.2485  -68.8614 H         1 UNK         0.0793 
    125 H125      -79.2186   23.5478  -69.1549 H         1 UNK         0.0793 
    126 H126      -79.8293   21.9004  -69.0870 H         1 UNK         0.0793 
    127 H127      -80.3749   25.0558  -70.7505 H         1 UNK         0.2896 
@<TRIPOS>BOND
     1    1    2 1    
     2    1   67 1    
     3    1   68 1    
     4    1   69 1    
     5    2    3 2    
     6    2    4 am   BACKBONE|DICT|INTERRES
     7    4    5 1    
     8    4   70 1    
     9    5    6 1    
    10    5   65 1    
    11    5   71 1    
    12    6    7 1    
    13    6   72 1    
    14    6   73 1    
    15    7    8 1    
    16    8    9 1    
    17    8   74 1    
    18    8   75 1    
    19    9   10 ar   
    20    9   14 ar   
    21   10   11 ar   
    22   10   76 1    
    23   11   12 ar   
    24   11   48 1    
    25   12   13 ar   
    26   12   77 1    
    27   13   14 ar   
    28   13   15 1    
    29   14   78 1    
    30   15   16 1    
    31   15   79 1    
    32   15   80 1    
    33   16   17 1    
    34   17   18 1    
    35   17   81 1    
    36   17   82 1    
    37   18   19 1    
    38   18   22 1    
    39   18   83 1    
    40   19   20 am   BACKBONE|DICT|INTERRES
    41   19   21 2    
    42   20   84 1    
    43   20   85 1    
    44   22   23 am   BACKBONE|DICT|INTERRES
    45   22   86 1    
    46   23   24 2    
    47   23   25 1    
    48   25   26 1    
    49   25   27 1    
    50   25   87 1    
    51   26   88 1    
    52   26   89 1    
    53   26   90 1    
    54   27   28 am   BACKBONE|DICT|INTERRES
    55   27   91 1    
    56   28   29 2    
    57   28   30 1    
    58   30   31 1    
    59   30   32 1    
    60   30   92 1    
    61   31   93 1    
    62   31   94 1    
    63   31   95 1    
    64   32   33 am   BACKBONE|DICT|INTERRES
    65   32   96 1    
    66   33   34 2    
    67   33   35 1    
    68   35   36 1    
    69   35   37 1    
    70   35   97 1    
    71   36   98 1    
    72   36   99 1    
    73   36  100 1    
    74   37   38 am   BACKBONE|DICT|INTERRES
    75   37  101 1    
    76   38   39 2    
    77   38   40 1    
    78   40   41 1    
    79   40   42 1    
    80   40  102 1    
    81   41  103 1    
    82   41  104 1    
    83   41  105 1    
    84   42   43 am   BACKBONE|DICT|INTERRES
    85   42  106 1    
    86   43   44 2    
    87   43   45 1    
    88   45   46 1    
    89   45   49 1    
    90   45  107 1    
    91   46   47 1    
    92   46  108 1    
    93   46  109 1    
    94   47   48 1    
    95   48  110 1    
    96   48  111 1    
    97   49   50 am   BACKBONE|DICT|INTERRES
    98   49  112 1    
    99   50   51 2    
   100   50   52 1    
   101   52   53 1    
   102   52   54 1    
   103   52  113 1    
   104   53  114 1    
   105   53  115 1    
   106   53  116 1    
   107   54   55 am   BACKBONE|DICT|INTERRES
   108   54  117 1    
   109   55   56 2    
   110   55   57 1    
   111   57   58 1    
   112   57   59 1    
   113   57  118 1    
   114   58  119 1    
   115   58  120 1    
   116   58  121 1    
   117   59   60 am   BACKBONE|DICT|INTERRES
   118   59  122 1    
   119   60   61 2    
   120   60   62 1    
   121   62   63 1    
   122   62   64 1    
   123   62  123 1    
   124   63  124 1    
   125   63  125 1    
   126   63  126 1    
   127   64   65 am   BACKBONE|DICT|INTERRES
   128   64  127 1    
   129   65   66 2    
@<TRIPOS>SUBSTRUCTURE
     1 UNK         1 GROUP             0       ****    0 ROOT    
