@<TRIPOS>MOLECULE
3R135
127   129    1
SMALL
USER_CHARGES


@<TRIPOS>ATOM
      1 CA        -84.2650   29.1954  -75.7600 C.3       0 UNK        -0.1998 
      2 C         -82.8218   28.7152  -75.7721 C.2       0 UNK         0.4909 
      3 O         -82.2831   28.4148  -76.8377 O.2       0 UNK        -0.5240 
      4 N         -82.1907   28.6288  -74.5936 N.am      1 UNK        -0.4739 
      5 CA        -80.7973   28.1957  -74.4185 C.3       1 UNK         0.0864 
      6 C6        -80.1908   28.7325  -73.0996 C.3       11 UNK        -0.0881 
      7 S7        -81.0513   28.1724  -71.5837 S.3       11 UNK        -0.2682 
      8 C8        -80.1753   29.1173  -70.2903 C.3       11 UNK         0.0289 
      9 C9        -78.6684   28.9310  -70.3853 C.ar      11 UNK        -0.0687 
     10 C10       -78.0865   27.7112  -70.0275 C.ar      11 UNK        -0.0823 
     11 C11       -76.7227   27.4861  -70.2457 C.ar      11 UNK        -0.0830 
     12 C12       -75.9353   28.5148  -70.7687 C.ar      11 UNK        -0.1021 
     13 C13       -76.5002   29.7475  -71.1030 C.ar      11 UNK        -0.0753 
     14 C14       -77.8674   29.9530  -70.9042 C.ar      11 UNK        -0.0933 
     15 C15       -75.6412   30.8391  -71.7189 C.3       11 UNK         0.0166 
     16 S16       -75.7754   30.8111  -73.5326 S.3       11 UNK        -0.2615 
     17 C17       -74.4687   31.9924  -74.0104 C.3       11 UNK        -0.0865 
     18 CA        -73.2965   31.3309  -74.7860 C.3       10 UNK         0.0862 
     19 C         -72.2832   32.4181  -75.2529 C.2       10 UNK         0.5551 
     20 N         -71.0650   32.4636  -74.7273 N.am      10 UNK        -0.7319 
     21 O         -72.6144   33.2379  -76.1059 O.2       10 UNK        -0.5018 
     22 N         -72.7140   30.2013  -74.0394 N.am      10 UNK        -0.4509 
     23 C         -71.8661   29.2909  -74.5373 C.2       10 UNK         0.4899 
     24 O         -71.4262   29.3198  -75.6869 O.2       10 UNK        -0.4839 
     25 CA        -71.4045   28.1673  -73.5950 C.3       9 UNK         0.0222 
     26 CB        -72.0021   28.2384  -72.1755 C.3       9 UNK        -0.1966 
     27 N         -71.7599   26.8804  -74.1875 N.am      9 UNK        -0.4218 
     28 C         -70.8917   25.9354  -74.5665 C.2       9 UNK         0.5020 
     29 O         -69.6683   26.0320  -74.4520 O.2       9 UNK        -0.5274 
     30 CA        -71.4863   24.6471  -75.1578 C.3       8 UNK         0.0270 
     31 CB        -71.9602   23.7101  -74.0343 C.3       8 UNK        -0.1976 
     32 N         -72.5878   24.8933  -76.0914 N.am      8 UNK        -0.4313 
     33 C         -72.4449   25.4323  -77.3108 C.2       8 UNK         0.5041 
     34 O         -71.3603   25.7661  -77.7901 O.2       8 UNK        -0.5577 
     35 CA        -73.7221   25.6169  -78.1483 C.3       7 UNK         0.0284 
     36 CB        -74.1293   24.2958  -78.8206 C.3       7 UNK        -0.1958 
     37 N         -74.8392   26.1390  -77.3591 N.am      7 UNK        -0.4454 
     38 C         -74.9163   27.3985  -76.9077 C.2       7 UNK         0.5089 
     39 O         -74.1033   28.2763  -77.1921 O.2       7 UNK        -0.5125 
     40 CA        -76.0929   27.7464  -75.9793 C.3       6 UNK         0.0408 
     41 CB        -77.2996   28.2391  -76.7909 C.3       6 UNK        -0.1791 
     42 N         -76.5056   26.6445  -75.1080 N.am      6 UNK        -0.4762 
     43 C         -75.7380   26.0878  -74.1600 C.2       6 UNK         0.5007 
     44 O         -74.5935   26.4572  -73.8931 O.2       6 UNK        -0.5032 
     45 CA        -76.3358   24.8626  -73.4405 C.3       5 UNK         0.0783 
     46 C46       -77.4050   25.2760  -72.3928 C.3       11 UNK        -0.0857 
     47 S47       -77.0192   24.7189  -70.6977 S.3       11 UNK        -0.2512 
     48 C48       -76.0940   26.1225  -69.9769 C.3       11 UNK         0.0225 
     49 N         -76.8628   23.8954  -74.4114 N.am      5 UNK        -0.4615 
     50 C         -76.1117   23.2222  -75.2930 C.2       4 UNK         0.5053 
     51 O         -74.8902   23.3359  -75.3755 O.2       4 UNK        -0.5105 
     52 CA        -76.8405   22.2838  -76.2659 C.3       4 UNK         0.0263 
     53 CB        -77.0870   20.9155  -75.6120 C.3       4 UNK        -0.1981 
     54 N         -78.1077   22.8214  -76.7623 N.am      4 UNK        -0.4224 
     55 C         -78.2514   23.9172  -77.5178 C.2       3 UNK         0.4895 
     56 O         -77.3183   24.6509  -77.8411 O.2       3 UNK        -0.5091 
     57 CA        -79.6782   24.2555  -77.9884 C.3       3 UNK         0.0250 
     58 CB        -80.2468   23.1685  -78.9226 C.3       3 UNK        -0.1996 
     59 N         -80.5969   24.5629  -76.8854 N.am      3 UNK        -0.4254 
     60 C         -80.9907   23.7756  -75.8728 C.2       2 UNK         0.5004 
     61 O         -80.7255   22.5737  -75.8003 O.2       2 UNK        -0.5226 
     62 CA        -81.7961   24.4398  -74.7348 C.3       2 UNK         0.0269 
     63 CB        -81.4632   23.8209  -73.3619 C.3       2 UNK        -0.1926 
     64 N         -81.6931   25.9066  -74.6561 N.am      2 UNK        -0.4687 
     65 C         -80.5897   26.6705  -74.5725 C.2       1 UNK         0.5165 
     66 O         -79.4420   26.2259  -74.6372 O.2       1 UNK        -0.5079 
     67 H67       -84.9180   28.4335  -76.1849 H         1 UNK         0.0900 
     68 H68       -84.3633   30.1009  -76.3583 H         1 UNK         0.0900 
     69 H69       -84.6126   29.4166  -74.7509 H         1 UNK         0.0900 
     70 H70       -82.6766   28.8735  -73.7413 H         1 UNK         0.2959 
     71 H71       -80.2230   28.6451  -75.2306 H         1 UNK         0.1079 
     72 H72       -80.1983   29.8235  -73.1137 H         1 UNK         0.0837 
     73 H73       -79.1384   28.4474  -73.0378 H         1 UNK         0.0837 
     74 H74       -80.4413   30.1720  -70.3770 H         1 UNK         0.0685 
     75 H75       -80.5241   28.7905  -69.3097 H         1 UNK         0.0685 
     76 H76       -78.7092   26.9141  -69.6445 H         1 UNK         0.1434 
     77 H77       -74.8832   28.3476  -70.9397 H         1 UNK         0.1329 
     78 H78       -78.3129   30.8945  -71.1951 H         1 UNK         0.1335 
     79 H79       -75.9514   31.8163  -71.3457 H         1 UNK         0.0680 
     80 H80       -74.5989   30.7086  -71.4241 H         1 UNK         0.0680 
     81 H81       -74.0959   32.5098  -73.1244 H         1 UNK         0.1032 
     82 H82       -74.9396   32.7619  -74.6256 H         1 UNK         0.1032 
     83 H83       -73.7145   30.9053  -75.7007 H         1 UNK         0.0461 
     84 H84       -70.7845   31.7909  -74.0324 H         1 UNK         0.3453 
     85 H85       -70.4175   33.1706  -75.0381 H         1 UNK         0.3453 
     86 H86       -73.0274   30.0968  -73.0873 H         1 UNK         0.2984 
     87 H87       -70.3211   28.2660  -73.5057 H         1 UNK         0.0554 
     88 H88       -71.6132   27.4349  -71.5497 H         1 UNK         0.0847 
     89 H89       -73.0861   28.1378  -72.1972 H         1 UNK         0.0847 
     90 H90       -71.7522   29.1762  -71.6777 H         1 UNK         0.0847 
     91 H91       -72.7562   26.7088  -74.3085 H         1 UNK         0.3141 
     92 H92       -70.6910   24.1379  -75.7065 H         1 UNK         0.0743 
     93 H93       -72.7886   24.1420  -73.4711 H         1 UNK         0.0784 
     94 H94       -72.2919   22.7510  -74.4327 H         1 UNK         0.0784 
     95 H95       -71.1543   23.5062  -73.3280 H         1 UNK         0.0784 
     96 H96       -73.5090   24.5721  -75.8018 H         1 UNK         0.3213 
     97 H97       -73.4995   26.3390  -78.9370 H         1 UNK         0.0855 
     98 H98       -73.3203   23.9102  -79.4424 H         1 UNK         0.0814 
     99 H99       -74.9980   24.4304  -79.4654 H         1 UNK         0.0814 
    100 H100      -74.3723   23.5261  -78.0884 H         1 UNK         0.0814 
    101 H101      -75.6098   25.5062  -77.1687 H         1 UNK         0.3105 
    102 H102      -75.7597   28.5620  -75.3371 H         1 UNK         0.0547 
    103 H103      -77.0122   29.0422  -77.4709 H         1 UNK         0.0837 
    104 H104      -77.7370   27.4406  -77.3915 H         1 UNK         0.0837 
    105 H105      -78.0740   28.6354  -76.1367 H         1 UNK         0.0837 
    106 H106      -77.4523   26.2966  -75.2214 H         1 UNK         0.3020 
    107 H107      -75.5023   24.3751  -72.9293 H         1 UNK         0.1245 
    108 H108      -78.3689   24.8327  -72.6376 H         1 UNK         0.0781 
    109 H109      -77.6073   26.3475  -72.4038 H         1 UNK         0.0781 
    110 H110      -75.0755   26.0881  -70.3675 H         1 UNK         0.0836 
    111 H111      -76.0136   25.9762  -68.8991 H         1 UNK         0.0836 
    112 H112      -77.8643   23.7737  -74.4348 H         1 UNK         0.3022 
    113 H113      -76.1881   22.1349  -77.1284 H         1 UNK         0.0747 
    114 H114      -77.5112   20.2071  -76.3239 H         1 UNK         0.0793 
    115 H115      -76.1546   20.4845  -75.2442 H         1 UNK         0.0793 
    116 H116      -77.7703   20.9891  -74.7649 H         1 UNK         0.0793 
    117 H117      -78.9614   22.3460  -76.4800 H         1 UNK         0.3047 
    118 H118      -79.6004   25.1744  -78.5721 H         1 UNK         0.0822 
    119 H119      -81.2141   23.4653  -79.3281 H         1 UNK         0.0807 
    120 H120      -80.3783   22.2116  -78.4170 H         1 UNK         0.0807 
    121 H121      -79.5803   22.9975  -79.7690 H         1 UNK         0.0807 
    122 H122      -80.8651   25.5351  -76.8182 H         1 UNK         0.2946 
    123 H123      -82.8426   24.2186  -74.9512 H         1 UNK         0.1144 
    124 H124      -81.6847   22.7529  -73.3453 H         1 UNK         0.0793 
    125 H125      -82.0475   24.2819  -72.5655 H         1 UNK         0.0793 
    126 H126      -80.4097   23.9374  -73.1136 H         1 UNK         0.0793 
    127 H127      -82.5753   26.3982  -74.6221 H         1 UNK         0.2896 
@<TRIPOS>BOND
     1    1    2 1    
     2    1   67 1    
     3    1   68 1    
     4    1   69 1    
     5    2    3 2    
     6    2    4 am   BACKBONE|DICT|INTERRES
     7    4    5 1    
     8    4   70 1    
     9    5    6 1    
    10    5   65 1    
    11    5   71 1    
    12    6    7 1    
    13    6   72 1    
    14    6   73 1    
    15    7    8 1    
    16    8    9 1    
    17    8   74 1    
    18    8   75 1    
    19    9   10 ar   
    20    9   14 ar   
    21   10   11 ar   
    22   10   76 1    
    23   11   12 ar   
    24   11   48 1    
    25   12   13 ar   
    26   12   77 1    
    27   13   14 ar   
    28   13   15 1    
    29   14   78 1    
    30   15   16 1    
    31   15   79 1    
    32   15   80 1    
    33   16   17 1    
    34   17   18 1    
    35   17   81 1    
    36   17   82 1    
    37   18   19 1    
    38   18   22 1    
    39   18   83 1    
    40   19   20 am   BACKBONE|DICT|INTERRES
    41   19   21 2    
    42   20   84 1    
    43   20   85 1    
    44   22   23 am   BACKBONE|DICT|INTERRES
    45   22   86 1    
    46   23   24 2    
    47   23   25 1    
    48   25   26 1    
    49   25   27 1    
    50   25   87 1    
    51   26   88 1    
    52   26   89 1    
    53   26   90 1    
    54   27   28 am   BACKBONE|DICT|INTERRES
    55   27   91 1    
    56   28   29 2    
    57   28   30 1    
    58   30   31 1    
    59   30   32 1    
    60   30   92 1    
    61   31   93 1    
    62   31   94 1    
    63   31   95 1    
    64   32   33 am   BACKBONE|DICT|INTERRES
    65   32   96 1    
    66   33   34 2    
    67   33   35 1    
    68   35   36 1    
    69   35   37 1    
    70   35   97 1    
    71   36   98 1    
    72   36   99 1    
    73   36  100 1    
    74   37   38 am   BACKBONE|DICT|INTERRES
    75   37  101 1    
    76   38   39 2    
    77   38   40 1    
    78   40   41 1    
    79   40   42 1    
    80   40  102 1    
    81   41  103 1    
    82   41  104 1    
    83   41  105 1    
    84   42   43 am   BACKBONE|DICT|INTERRES
    85   42  106 1    
    86   43   44 2    
    87   43   45 1    
    88   45   46 1    
    89   45   49 1    
    90   45  107 1    
    91   46   47 1    
    92   46  108 1    
    93   46  109 1    
    94   47   48 1    
    95   48  110 1    
    96   48  111 1    
    97   49   50 am   BACKBONE|DICT|INTERRES
    98   49  112 1    
    99   50   51 2    
   100   50   52 1    
   101   52   53 1    
   102   52   54 1    
   103   52  113 1    
   104   53  114 1    
   105   53  115 1    
   106   53  116 1    
   107   54   55 am   BACKBONE|DICT|INTERRES
   108   54  117 1    
   109   55   56 2    
   110   55   57 1    
   111   57   58 1    
   112   57   59 1    
   113   57  118 1    
   114   58  119 1    
   115   58  120 1    
   116   58  121 1    
   117   59   60 am   BACKBONE|DICT|INTERRES
   118   59  122 1    
   119   60   61 2    
   120   60   62 1    
   121   62   63 1    
   122   62   64 1    
   123   62  123 1    
   124   63  124 1    
   125   63  125 1    
   126   63  126 1    
   127   64   65 am   BACKBONE|DICT|INTERRES
   128   64  127 1    
   129   65   66 2    
@<TRIPOS>SUBSTRUCTURE
     1 UNK         1 GROUP             0       ****    0 ROOT    
