@<TRIPOS>MOLECULE
3R135
127   129    1
SMALL
USER_CHARGES


@<TRIPOS>ATOM
      1 CA        -79.9010   23.8620  -72.8038 C.3       0 UNK        -0.1998 
      2 C         -80.8139   24.9785  -73.2812 C.2       0 UNK         0.4909 
      3 O         -81.5643   24.7848  -74.2380 O.2       0 UNK        -0.5240 
      4 N         -80.7565   26.1431  -72.6219 N.am      1 UNK        -0.4739 
      5 CA        -81.6309   27.2988  -72.8558 C.3       1 UNK         0.0864 
      6 C6        -81.4303   28.4300  -71.8121 C.3       11 UNK        -0.0881 
      7 S7        -81.2862   27.8232  -70.0929 S.3       11 UNK        -0.2682 
      8 C8        -79.8305   28.7355  -69.4796 C.3       11 UNK         0.0289 
      9 C9        -78.5443   28.3865  -70.2209 C.ar      11 UNK        -0.0687 
     10 C10       -77.8350   27.2230  -69.9067 C.ar      11 UNK        -0.0823 
     11 C11       -76.6268   26.9302  -70.5506 C.ar      11 UNK        -0.0830 
     12 C12       -76.1374   27.8023  -71.5272 C.ar      11 UNK        -0.1021 
     13 C13       -76.8367   28.9704  -71.8464 C.ar      11 UNK        -0.0753 
     14 C14       -78.0350   29.2571  -71.1891 C.ar      11 UNK        -0.0933 
     15 C15       -76.2991   29.9329  -72.8920 C.3       11 UNK         0.0166 
     16 S16       -75.4788   31.3568  -72.1106 S.3       11 UNK        -0.2615 
     17 C17       -75.0160   32.3948  -73.5471 C.3       11 UNK        -0.0865 
     18 CA        -74.2659   31.6561  -74.6908 C.3       10 UNK         0.0862 
     19 C         -73.8246   32.6436  -75.8100 C.2       10 UNK         0.5551 
     20 N         -72.5451   32.7352  -76.1502 N.am      10 UNK        -0.7319 
     21 O         -74.6625   33.3360  -76.3824 O.2       10 UNK        -0.5018 
     22 N         -73.1961   30.7935  -74.1636 N.am      10 UNK        -0.4509 
     23 C         -72.7499   29.6816  -74.7556 C.2       10 UNK         0.4899 
     24 O         -73.0986   29.3173  -75.8804 O.2       10 UNK        -0.4839 
     25 CA        -71.7672   28.8204  -73.9481 C.3       9 UNK         0.0222 
     26 CB        -72.0055   28.8710  -72.4228 C.3       9 UNK        -0.1966 
     27 N         -71.8754   27.4435  -74.4165 N.am      9 UNK        -0.4218 
     28 C         -70.8837   26.5480  -74.4508 C.2       9 UNK         0.5020 
     29 O         -69.7476   26.7633  -74.0252 O.2       9 UNK        -0.5274 
     30 CA        -71.2093   25.1741  -75.0591 C.3       8 UNK         0.0270 
     31 CB        -71.4823   24.1518  -73.9454 C.3       8 UNK        -0.1976 
     32 N         -72.3498   25.2184  -75.9807 N.am      8 UNK        -0.4313 
     33 C         -72.2861   25.6835  -77.2366 C.2       8 UNK         0.5041 
     34 O         -71.2400   26.0738  -77.7594 O.2       8 UNK        -0.5577 
     35 CA        -73.6057   25.7318  -78.0369 C.3       7 UNK         0.0284 
     36 CB        -73.3801   25.7950  -79.5622 C.3       7 UNK        -0.1958 
     37 N         -74.5470   24.6564  -77.7011 N.am      7 UNK        -0.4454 
     38 C         -74.3416   23.3328  -77.7769 C.2       7 UNK         0.5089 
     39 O         -73.3081   22.8122  -78.2006 O.2       7 UNK        -0.5125 
     40 CA        -75.4994   22.4557  -77.2605 C.3       6 UNK         0.0408 
     41 CB        -75.1336   20.9597  -77.1564 C.3       6 UNK        -0.1791 
     42 N         -76.0463   22.9619  -75.9938 N.am      6 UNK        -0.4762 
     43 C         -75.4018   23.0835  -74.8212 C.2       6 UNK         0.5007 
     44 O         -74.2484   22.7000  -74.6342 O.2       6 UNK        -0.5032 
     45 CA        -76.1861   23.7822  -73.6870 C.3       5 UNK         0.0783 
     46 C46       -75.3626   23.9926  -72.3867 C.3       11 UNK        -0.0857 
     47 S47       -76.4542   24.1874  -70.9371 S.3       11 UNK        -0.2512 
     48 C48       -75.8277   25.7004  -70.1466 C.3       11 UNK         0.0225 
     49 N         -76.8317   25.0134  -74.1656 N.am      5 UNK        -0.4615 
     50 C         -76.2270   26.0846  -74.7023 C.2       4 UNK         0.5053 
     51 O         -75.0034   26.2116  -74.7993 O.2       4 UNK        -0.5105 
     52 CA        -77.1712   27.1704  -75.2628 C.3       4 UNK         0.0263 
     53 CB        -76.4612   28.1641  -76.2035 C.3       4 UNK        -0.1981 
     54 N         -78.3705   26.6292  -75.9194 N.am      4 UNK        -0.4224 
     55 C         -78.4065   25.7552  -76.9406 C.2       3 UNK         0.4895 
     56 O         -77.3966   25.2657  -77.4474 O.2       3 UNK        -0.5091 
     57 CA        -79.7821   25.3054  -77.4683 C.3       3 UNK         0.0250 
     58 CB        -80.0008   23.8089  -77.1873 C.3       3 UNK        -0.1996 
     59 N         -80.8975   26.0692  -76.9025 N.am      3 UNK        -0.4254 
     60 C         -81.3179   27.2530  -77.3747 C.2       2 UNK         0.5004 
     61 O         -80.8624   27.7832  -78.3883 O.2       2 UNK        -0.5226 
     62 CA        -82.4115   27.9899  -76.5751 C.3       2 UNK         0.0269 
     63 CB        -83.7944   27.7357  -77.1966 C.3       2 UNK        -0.1926 
     64 N         -82.4528   27.6431  -75.1491 N.am      2 UNK        -0.4687 
     65 C         -81.4446   27.8365  -74.2875 C.2       1 UNK         0.5165 
     66 O         -80.3714   28.3551  -74.6016 O.2       1 UNK        -0.5079 
     67 H67       -80.4849   23.1070  -72.2784 H         1 UNK         0.0900 
     68 H68       -79.4142   23.3800  -73.6499 H         1 UNK         0.0900 
     69 H69       -79.1356   24.2312  -72.1229 H         1 UNK         0.0900 
     70 H70       -80.1173   26.2516  -71.8465 H         1 UNK         0.2959 
     71 H71       -82.6570   26.9392  -72.7522 H         1 UNK         0.1079 
     72 H72       -82.2710   29.1248  -71.8541 H         1 UNK         0.0837 
     73 H73       -80.5526   29.0262  -72.0561 H         1 UNK         0.0837 
     74 H74       -79.7041   28.5165  -68.4183 H         1 UNK         0.0685 
     75 H75       -80.0301   29.8064  -69.5430 H         1 UNK         0.0685 
     76 H76       -78.2143   26.5541  -69.1458 H         1 UNK         0.1434 
     77 H77       -75.2052   27.5784  -72.0273 H         1 UNK         0.1329 
     78 H78       -78.5638   30.1702  -71.4262 H         1 UNK         0.1335 
     79 H79       -77.1111   30.2799  -73.5331 H         1 UNK         0.0680 
     80 H80       -75.5898   29.4114  -73.5332 H         1 UNK         0.0680 
     81 H81       -75.9256   32.8580  -73.9344 H         1 UNK         0.1032 
     82 H82       -74.4039   33.2158  -73.1687 H         1 UNK         0.1032 
     83 H83       -74.9947   31.0046  -75.1760 H         1 UNK         0.0461 
     84 H84       -72.2694   33.3749  -76.8785 H         1 UNK         0.3453 
     85 H85       -71.8558   32.1624  -75.6905 H         1 UNK         0.3453 
     86 H86       -72.8563   31.0292  -73.2431 H         1 UNK         0.2984 
     87 H87       -70.7654   29.1965  -74.1647 H         1 UNK         0.0554 
     88 H88       -71.3532   28.1735  -71.8970 H         1 UNK         0.0847 
     89 H89       -73.0346   28.6176  -72.1666 H         1 UNK         0.0847 
     90 H90       -71.7962   29.8605  -72.0158 H         1 UNK         0.0847 
     91 H91       -72.7670   27.1980  -74.8326 H         1 UNK         0.3141 
     92 H92       -70.3277   24.8427  -75.6119 H         1 UNK         0.0743 
     93 H93       -72.3766   24.4053  -73.3753 H         1 UNK         0.0784 
     94 H94       -71.6148   23.1499  -74.3539 H         1 UNK         0.0784 
     95 H95       -70.6490   24.1047  -73.2429 H         1 UNK         0.0784 
     96 H96       -73.2532   24.9446  -75.6122 H         1 UNK         0.3213 
     97 H97       -74.0906   26.6618  -77.7389 H         1 UNK         0.0855 
     98 H98       -72.8437   24.9186  -79.9273 H         1 UNK         0.0814 
     99 H99       -72.7936   26.6729  -79.8359 H         1 UNK         0.0814 
    100 H100      -74.3257   25.8593  -80.1005 H         1 UNK         0.0814 
    101 H101      -75.4655   24.9591  -77.3852 H         1 UNK         0.3105 
    102 H102      -76.3002   22.5465  -77.9961 H         1 UNK         0.0547 
    103 H103      -75.9757   20.3688  -76.7969 H         1 UNK         0.0837 
    104 H104      -74.2925   20.7909  -76.4835 H         1 UNK         0.0837 
    105 H105      -74.8510   20.5605  -78.1312 H         1 UNK         0.0837 
    106 H106      -76.9660   23.3743  -76.0684 H         1 UNK         0.3020 
    107 H107      -76.9851   23.0781  -73.4504 H         1 UNK         0.1245 
    108 H108      -74.6894   24.8450  -72.4843 H         1 UNK         0.0781 
    109 H109      -74.7290   23.1297  -72.1744 H         1 UNK         0.0781 
    110 H110      -74.7670   25.8340  -70.3647 H         1 UNK         0.0836 
    111 H111      -75.8912   25.5739  -69.0648 H         1 UNK         0.0836 
    112 H112      -77.8385   25.0244  -74.1312 H         1 UNK         0.3022 
    113 H113      -77.5283   27.7295  -74.3976 H         1 UNK         0.0747 
    114 H114      -77.1237   28.9837  -76.4812 H         1 UNK         0.0793 
    115 H115      -75.5878   28.6047  -75.7274 H         1 UNK         0.0793 
    116 H116      -76.1229   27.6843  -77.1210 H         1 UNK         0.0793 
    117 H117      -79.2470   27.0146  -75.5814 H         1 UNK         0.3047 
    118 H118      -79.7687   25.4431  -78.5517 H         1 UNK         0.0822 
    119 H119      -80.9550   23.4670  -77.5885 H         1 UNK         0.0807 
    120 H120      -79.9898   23.5884  -76.1202 H         1 UNK         0.0807 
    121 H121      -79.2218   23.2041  -77.6538 H         1 UNK         0.0807 
    122 H122      -81.3222   25.6979  -76.0573 H         1 UNK         0.2946 
    123 H123      -82.1925   29.0578  -76.6482 H         1 UNK         0.1144 
    124 H124      -84.5667   28.3268  -76.7042 H         1 UNK         0.0793 
    125 H125      -84.0797   26.6849  -77.1301 H         1 UNK         0.0793 
    126 H126      -83.8044   28.0097  -78.2527 H         1 UNK         0.0793 
    127 H127      -83.2838   27.1673  -74.8266 H         1 UNK         0.2896 
@<TRIPOS>BOND
     1    1    2 1    
     2    1   67 1    
     3    1   68 1    
     4    1   69 1    
     5    2    3 2    
     6    2    4 am   BACKBONE|DICT|INTERRES
     7    4    5 1    
     8    4   70 1    
     9    5    6 1    
    10    5   65 1    
    11    5   71 1    
    12    6    7 1    
    13    6   72 1    
    14    6   73 1    
    15    7    8 1    
    16    8    9 1    
    17    8   74 1    
    18    8   75 1    
    19    9   10 ar   
    20    9   14 ar   
    21   10   11 ar   
    22   10   76 1    
    23   11   12 ar   
    24   11   48 1    
    25   12   13 ar   
    26   12   77 1    
    27   13   14 ar   
    28   13   15 1    
    29   14   78 1    
    30   15   16 1    
    31   15   79 1    
    32   15   80 1    
    33   16   17 1    
    34   17   18 1    
    35   17   81 1    
    36   17   82 1    
    37   18   19 1    
    38   18   22 1    
    39   18   83 1    
    40   19   20 am   BACKBONE|DICT|INTERRES
    41   19   21 2    
    42   20   84 1    
    43   20   85 1    
    44   22   23 am   BACKBONE|DICT|INTERRES
    45   22   86 1    
    46   23   24 2    
    47   23   25 1    
    48   25   26 1    
    49   25   27 1    
    50   25   87 1    
    51   26   88 1    
    52   26   89 1    
    53   26   90 1    
    54   27   28 am   BACKBONE|DICT|INTERRES
    55   27   91 1    
    56   28   29 2    
    57   28   30 1    
    58   30   31 1    
    59   30   32 1    
    60   30   92 1    
    61   31   93 1    
    62   31   94 1    
    63   31   95 1    
    64   32   33 am   BACKBONE|DICT|INTERRES
    65   32   96 1    
    66   33   34 2    
    67   33   35 1    
    68   35   36 1    
    69   35   37 1    
    70   35   97 1    
    71   36   98 1    
    72   36   99 1    
    73   36  100 1    
    74   37   38 am   BACKBONE|DICT|INTERRES
    75   37  101 1    
    76   38   39 2    
    77   38   40 1    
    78   40   41 1    
    79   40   42 1    
    80   40  102 1    
    81   41  103 1    
    82   41  104 1    
    83   41  105 1    
    84   42   43 am   BACKBONE|DICT|INTERRES
    85   42  106 1    
    86   43   44 2    
    87   43   45 1    
    88   45   46 1    
    89   45   49 1    
    90   45  107 1    
    91   46   47 1    
    92   46  108 1    
    93   46  109 1    
    94   47   48 1    
    95   48  110 1    
    96   48  111 1    
    97   49   50 am   BACKBONE|DICT|INTERRES
    98   49  112 1    
    99   50   51 2    
   100   50   52 1    
   101   52   53 1    
   102   52   54 1    
   103   52  113 1    
   104   53  114 1    
   105   53  115 1    
   106   53  116 1    
   107   54   55 am   BACKBONE|DICT|INTERRES
   108   54  117 1    
   109   55   56 2    
   110   55   57 1    
   111   57   58 1    
   112   57   59 1    
   113   57  118 1    
   114   58  119 1    
   115   58  120 1    
   116   58  121 1    
   117   59   60 am   BACKBONE|DICT|INTERRES
   118   59  122 1    
   119   60   61 2    
   120   60   62 1    
   121   62   63 1    
   122   62   64 1    
   123   62  123 1    
   124   63  124 1    
   125   63  125 1    
   126   63  126 1    
   127   64   65 am   BACKBONE|DICT|INTERRES
   128   64  127 1    
   129   65   66 2    
@<TRIPOS>SUBSTRUCTURE
     1 UNK         1 GROUP             0       ****    0 ROOT    
