@<TRIPOS>MOLECULE
3R135
127   129    1
SMALL
USER_CHARGES


@<TRIPOS>ATOM
      1 CA        -80.9464   23.8349  -71.7744 C.3       0 UNK        -0.1998 
      2 C         -81.4788   24.8641  -72.7592 C.2       0 UNK         0.4909 
      3 O         -82.2979   24.5265  -73.6139 O.2       0 UNK        -0.5240 
      4 N         -81.0262   26.1187  -72.6385 N.am      1 UNK        -0.4739 
      5 CA        -81.3848   27.2348  -73.5204 C.3       1 UNK         0.0864 
      6 C6        -80.8977   28.5978  -72.9652 C.3       11 UNK        -0.0881 
      7 S7        -81.5513   28.9306  -71.2893 S.3       11 UNK        -0.2682 
      8 C8        -80.3884   30.1791  -70.6327 C.3       11 UNK         0.0289 
      9 C9        -78.9312   29.7312  -70.6710 C.ar      11 UNK        -0.0687 
     10 C10       -78.5502   28.4916  -70.1444 C.ar      11 UNK        -0.0823 
     11 C11       -77.2327   28.0433  -70.2733 C.ar      11 UNK        -0.0830 
     12 C12       -76.2800   28.8694  -70.8748 C.ar      11 UNK        -0.1021 
     13 C13       -76.6419   30.1160  -71.3873 C.ar      11 UNK        -0.0753 
     14 C14       -77.9680   30.5449  -71.2781 C.ar      11 UNK        -0.0933 
     15 C15       -75.6097   30.9676  -72.1092 C.3       11 UNK         0.0166 
     16 S16       -75.8140   30.8151  -73.9087 S.3       11 UNK        -0.2615 
     17 C17       -74.2552   31.5333  -74.5301 C.3       11 UNK        -0.0865 
     18 CA        -73.4013   30.4816  -75.2964 C.3       10 UNK         0.0862 
     19 C         -72.2571   31.1148  -76.1489 C.2       10 UNK         0.5551 
     20 N         -71.1366   30.4352  -76.3684 N.am      10 UNK        -0.7319 
     21 O         -72.3935   32.2299  -76.6471 O.2       10 UNK        -0.5018 
     22 N         -72.9820   29.3514  -74.4504 N.am      10 UNK        -0.4509 
     23 C         -72.0866   29.3915  -73.4567 C.2       10 UNK         0.4899 
     24 O         -71.5715   30.4258  -73.0312 O.2       10 UNK        -0.4839 
     25 CA        -71.6574   28.0424  -72.8514 C.3       9 UNK         0.0222 
     26 CB        -72.4876   27.7154  -71.6007 C.3       9 UNK        -0.1966 
     27 N         -71.7186   26.9041  -73.7767 N.am      9 UNK        -0.4218 
     28 C         -71.0418   26.7787  -74.9267 C.2       9 UNK         0.5020 
     29 O         -70.3214   27.6589  -75.4005 O.2       9 UNK        -0.5274 
     30 CA        -71.1769   25.4345  -75.6572 C.3       8 UNK         0.0270 
     31 CB        -71.0909   24.2305  -74.6983 C.3       8 UNK        -0.1976 
     32 N         -72.4289   25.3713  -76.4121 N.am      8 UNK        -0.4313 
     33 C         -72.5349   25.6306  -77.7227 C.2       8 UNK         0.5041 
     34 O         -71.5910   25.9789  -78.4340 O.2       8 UNK        -0.5577 
     35 CA        -73.9212   25.4483  -78.3661 C.3       7 UNK         0.0284 
     36 CB        -74.2101   23.9609  -78.6225 C.3       7 UNK        -0.1958 
     37 N         -75.0060   26.0374  -77.5798 N.am      7 UNK        -0.4454 
     38 C         -75.1740   27.3552  -77.4034 C.2       7 UNK         0.5089 
     39 O         -74.4516   28.2119  -77.9131 O.2       7 UNK        -0.5125 
     40 CA        -76.3479   27.8019  -76.5136 C.3       6 UNK         0.0408 
     41 CB        -77.6106   28.0070  -77.3633 C.3       6 UNK        -0.1791 
     42 N         -76.6409   26.8888  -75.4044 N.am      6 UNK        -0.4762 
     43 C         -75.7782   26.5838  -74.4243 C.2       6 UNK         0.5007 
     44 O         -74.6407   27.0438  -74.3498 O.2       6 UNK        -0.5032 
     45 CA        -76.2381   25.5490  -73.3783 C.3       5 UNK         0.0783 
     46 C46       -77.4911   26.0427  -72.6194 C.3       11 UNK        -0.0857 
     47 S47       -77.6308   25.3557  -70.9321 S.3       11 UNK        -0.2512 
     48 C48       -76.8543   26.6264  -69.8665 C.3       11 UNK         0.0225 
     49 N         -76.4752   24.2399  -73.9921 N.am      5 UNK        -0.4615 
     50 C         -75.6084   23.5423  -74.7382 C.2       4 UNK         0.5053 
     51 O         -74.4369   23.8682  -74.9264 O.2       4 UNK        -0.5105 
     52 CA        -76.1647   22.2887  -75.4372 C.3       4 UNK         0.0263 
     53 CB        -76.0234   21.0613  -74.5236 C.3       4 UNK        -0.1981 
     54 N         -77.5624   22.4175  -75.8728 N.am      4 UNK        -0.4224 
     55 C         -78.0430   23.3667  -76.6912 C.2       3 UNK         0.4895 
     56 O         -77.3477   24.2627  -77.1758 O.2       3 UNK        -0.5091 
     57 CA        -79.5474   23.3345  -77.0073 C.3       3 UNK         0.0250 
     58 CB        -80.3780   22.4247  -76.0747 C.3       3 UNK        -0.1996 
     59 N         -80.0510   24.7020  -76.9440 N.am      3 UNK        -0.4254 
     60 C         -81.0907   25.2082  -77.6110 C.2       2 UNK         0.5004 
     61 O         -81.7942   24.5509  -78.3810 O.2       2 UNK        -0.5226 
     62 CA        -81.3970   26.7011  -77.3547 C.3       2 UNK         0.0269 
     63 CB        -82.5479   27.2284  -78.2324 C.3       2 UNK        -0.1926 
     64 N         -81.7115   26.9796  -75.9477 N.am      2 UNK        -0.4687 
     65 C         -80.8300   26.9892  -74.9384 C.2       1 UNK         0.5165 
     66 O         -79.6207   26.7934  -75.0917 O.2       1 UNK        -0.5079 
     67 H67       -81.7521   23.1847  -71.4346 H         1 UNK         0.0900 
     68 H68       -80.5056   24.3072  -70.8968 H         1 UNK         0.0900 
     69 H69       -80.1858   23.2171  -72.2506 H         1 UNK         0.0900 
     70 H70       -80.3569   26.3397  -71.9155 H         1 UNK         0.2959 
     71 H71       -82.4751   27.2662  -73.5769 H         1 UNK         0.1079 
     72 H72       -79.8066   28.6245  -72.9462 H         1 UNK         0.0837 
     73 H73       -81.2113   29.4135  -73.6194 H         1 UNK         0.0837 
     74 H74       -80.5234   31.1036  -71.1964 H         1 UNK         0.0685 
     75 H75       -80.6600   30.4047  -69.6008 H         1 UNK         0.0685 
     76 H76       -79.2930   27.8472  -69.6944 H         1 UNK         0.1434 
     77 H77       -75.2642   28.5238  -70.9886 H         1 UNK         0.1329 
     78 H78       -78.2529   31.4994  -71.6993 H         1 UNK         0.1335 
     79 H79       -74.6008   30.6594  -71.8295 H         1 UNK         0.0680 
     80 H80       -75.7123   32.0134  -71.8160 H         1 UNK         0.0680 
     81 H81       -73.6837   31.9798  -73.7153 H         1 UNK         0.1032 
     82 H82       -74.5309   32.3589  -75.1883 H         1 UNK         0.1032 
     83 H83       -74.0555   30.0396  -76.0456 H         1 UNK         0.0461 
     84 H84       -70.4109   30.8512  -76.9295 H         1 UNK         0.3453 
     85 H85       -71.0020   29.5097  -75.9760 H         1 UNK         0.3453 
     86 H86       -73.4158   28.4556  -74.6582 H         1 UNK         0.2984 
     87 H87       -70.6152   28.1514  -72.5450 H         1 UNK         0.0554 
     88 H88       -72.0579   26.8800  -71.0478 H         1 UNK         0.0847 
     89 H89       -73.5106   27.4493  -71.8640 H         1 UNK         0.0847 
     90 H90       -72.5304   28.5661  -70.9189 H         1 UNK         0.0847 
     91 H91       -72.3426   26.1540  -73.5179 H         1 UNK         0.3141 
     92 H92       -70.3276   25.3559  -76.3395 H         1 UNK         0.0743 
     93 H93       -70.1823   24.2743  -74.0961 H         1 UNK         0.0784 
     94 H94       -71.9372   24.1782  -74.0132 H         1 UNK         0.0784 
     95 H95       -71.0637   23.2927  -75.2535 H         1 UNK         0.0784 
     96 H96       -73.2554   25.0671  -75.9020 H         1 UNK         0.3213 
     97 H97       -73.9052   25.9553  -79.3335 H         1 UNK         0.0855 
     98 H98       -73.4619   23.5302  -79.2890 H         1 UNK         0.0814 
     99 H99       -75.1843   23.8177  -79.0906 H         1 UNK         0.0814 
    100 H100      -74.1914   23.3830  -77.6995 H         1 UNK         0.0814 
    101 H101      -75.6962   25.4055  -77.1838 H         1 UNK         0.3105 
    102 H102      -76.0784   28.7647  -76.0783 H         1 UNK         0.0547 
    103 H103      -77.4097   28.6619  -78.2123 H         1 UNK         0.0837 
    104 H104      -77.9845   27.0624  -77.7597 H         1 UNK         0.0837 
    105 H105      -78.4052   28.4735  -76.7817 H         1 UNK         0.0837 
    106 H106      -77.5801   26.5097  -75.3696 H         1 UNK         0.3020 
    107 H107      -75.4139   25.4388  -72.6703 H         1 UNK         0.1245 
    108 H108      -78.3851   25.7347  -73.1576 H         1 UNK         0.0781 
    109 H109      -77.5545   27.1298  -72.5992 H         1 UNK         0.0781 
    110 H110      -75.7717   26.4934  -69.8983 H         1 UNK         0.0836 
    111 H111      -77.1515   26.4537  -68.8313 H         1 UNK         0.0836 
    112 H112      -77.4080   23.8706  -73.8938 H         1 UNK         0.3022 
    113 H113      -75.5628   22.1155  -76.3302 H         1 UNK         0.0747 
    114 H114      -76.3173   20.1463  -75.0383 H         1 UNK         0.0793 
    115 H115      -74.9884   20.9312  -74.2034 H         1 UNK         0.0793 
    116 H116      -76.6335   21.1528  -73.6239 H         1 UNK         0.0793 
    117 H117      -78.2065   21.7215  -75.5258 H         1 UNK         0.3047 
    118 H118      -79.6436   22.9706  -78.0323 H         1 UNK         0.0822 
    119 H119      -81.4374   22.4668  -76.3289 H         1 UNK         0.0807 
    120 H120      -80.2847   22.7216  -75.0291 H         1 UNK         0.0807 
    121 H121      -80.0788   21.3796  -76.1606 H         1 UNK         0.0807 
    122 H122      -79.5435   25.3312  -76.3287 H         1 UNK         0.2946 
    123 H123      -80.4987   27.2596  -77.6247 H         1 UNK         0.1144 
    124 H124      -82.6995   28.2983  -78.0879 H         1 UNK         0.0793 
    125 H125      -83.4888   26.7225  -78.0122 H         1 UNK         0.0793 
    126 H126      -82.3344   27.0746  -79.2911 H         1 UNK         0.0793 
    127 H127      -82.6907   27.1016  -75.7319 H         1 UNK         0.2896 
@<TRIPOS>BOND
     1    1    2 1    
     2    1   67 1    
     3    1   68 1    
     4    1   69 1    
     5    2    3 2    
     6    2    4 am   BACKBONE|DICT|INTERRES
     7    4    5 1    
     8    4   70 1    
     9    5    6 1    
    10    5   65 1    
    11    5   71 1    
    12    6    7 1    
    13    6   72 1    
    14    6   73 1    
    15    7    8 1    
    16    8    9 1    
    17    8   74 1    
    18    8   75 1    
    19    9   10 ar   
    20    9   14 ar   
    21   10   11 ar   
    22   10   76 1    
    23   11   12 ar   
    24   11   48 1    
    25   12   13 ar   
    26   12   77 1    
    27   13   14 ar   
    28   13   15 1    
    29   14   78 1    
    30   15   16 1    
    31   15   79 1    
    32   15   80 1    
    33   16   17 1    
    34   17   18 1    
    35   17   81 1    
    36   17   82 1    
    37   18   19 1    
    38   18   22 1    
    39   18   83 1    
    40   19   20 am   BACKBONE|DICT|INTERRES
    41   19   21 2    
    42   20   84 1    
    43   20   85 1    
    44   22   23 am   BACKBONE|DICT|INTERRES
    45   22   86 1    
    46   23   24 2    
    47   23   25 1    
    48   25   26 1    
    49   25   27 1    
    50   25   87 1    
    51   26   88 1    
    52   26   89 1    
    53   26   90 1    
    54   27   28 am   BACKBONE|DICT|INTERRES
    55   27   91 1    
    56   28   29 2    
    57   28   30 1    
    58   30   31 1    
    59   30   32 1    
    60   30   92 1    
    61   31   93 1    
    62   31   94 1    
    63   31   95 1    
    64   32   33 am   BACKBONE|DICT|INTERRES
    65   32   96 1    
    66   33   34 2    
    67   33   35 1    
    68   35   36 1    
    69   35   37 1    
    70   35   97 1    
    71   36   98 1    
    72   36   99 1    
    73   36  100 1    
    74   37   38 am   BACKBONE|DICT|INTERRES
    75   37  101 1    
    76   38   39 2    
    77   38   40 1    
    78   40   41 1    
    79   40   42 1    
    80   40  102 1    
    81   41  103 1    
    82   41  104 1    
    83   41  105 1    
    84   42   43 am   BACKBONE|DICT|INTERRES
    85   42  106 1    
    86   43   44 2    
    87   43   45 1    
    88   45   46 1    
    89   45   49 1    
    90   45  107 1    
    91   46   47 1    
    92   46  108 1    
    93   46  109 1    
    94   47   48 1    
    95   48  110 1    
    96   48  111 1    
    97   49   50 am   BACKBONE|DICT|INTERRES
    98   49  112 1    
    99   50   51 2    
   100   50   52 1    
   101   52   53 1    
   102   52   54 1    
   103   52  113 1    
   104   53  114 1    
   105   53  115 1    
   106   53  116 1    
   107   54   55 am   BACKBONE|DICT|INTERRES
   108   54  117 1    
   109   55   56 2    
   110   55   57 1    
   111   57   58 1    
   112   57   59 1    
   113   57  118 1    
   114   58  119 1    
   115   58  120 1    
   116   58  121 1    
   117   59   60 am   BACKBONE|DICT|INTERRES
   118   59  122 1    
   119   60   61 2    
   120   60   62 1    
   121   62   63 1    
   122   62   64 1    
   123   62  123 1    
   124   63  124 1    
   125   63  125 1    
   126   63  126 1    
   127   64   65 am   BACKBONE|DICT|INTERRES
   128   64  127 1    
   129   65   66 2    
@<TRIPOS>SUBSTRUCTURE
     1 UNK         1 GROUP             0       ****    0 ROOT    
