@<TRIPOS>MOLECULE
3R135
127   129    1
SMALL
USER_CHARGES


@<TRIPOS>ATOM
      1 CA        -84.1170   28.3068  -73.4385 C.3       0 UNK        -0.1998 
      2 C         -83.1181   28.0920  -72.3043 C.2       0 UNK         0.4909 
      3 O         -83.5264   27.7240  -71.2048 O.2       0 UNK        -0.5240 
      4 N         -81.8100   28.3110  -72.5034 N.am      1 UNK        -0.4739 
      5 CA        -81.1467   28.7027  -73.7562 C.3       1 UNK         0.0864 
      6 C6        -79.6999   29.1940  -73.5005 C.3       11 UNK        -0.0881 
      7 S7        -79.6379   30.7757  -72.5825 S.3       11 UNK        -0.2682 
      8 C8        -79.4686   30.2844  -70.8314 C.3       11 UNK         0.0289 
      9 C9        -78.1950   29.4962  -70.5615 C.ar      11 UNK        -0.0687 
     10 C10       -78.2503   28.1060  -70.4391 C.ar      11 UNK        -0.0823 
     11 C11       -77.0812   27.3595  -70.2705 C.ar      11 UNK        -0.0830 
     12 C12       -75.8561   28.0211  -70.1492 C.ar      11 UNK        -0.1021 
     13 C13       -75.7903   29.4148  -70.2308 C.ar      11 UNK        -0.0753 
     14 C14       -76.9631   30.1483  -70.4445 C.ar      11 UNK        -0.0933 
     15 C15       -74.4481   30.1181  -70.0838 C.3       11 UNK         0.0166 
     16 S16       -73.3842   29.8939  -71.5467 S.3       11 UNK        -0.2615 
     17 C17       -74.2401   30.9215  -72.7886 C.3       11 UNK        -0.0865 
     18 CA        -74.6960   30.1089  -74.0366 C.3       10 UNK         0.0862 
     19 C         -75.6698   30.9216  -74.9463 C.2       10 UNK         0.5551 
     20 N         -75.6158   30.7881  -76.2663 N.am      10 UNK        -0.7319 
     21 O         -76.5073   31.6704  -74.4513 O.2       10 UNK        -0.5018 
     22 N         -73.5829   29.4603  -74.7615 N.am      10 UNK        -0.4509 
     23 C         -72.5553   30.0825  -75.3590 C.2       10 UNK         0.4899 
     24 O         -72.3738   31.2996  -75.3050 O.2       10 UNK        -0.4839 
     25 CA        -71.6025   29.2330  -76.2240 C.3       9 UNK         0.0222 
     26 CB        -70.1507   29.7603  -76.2149 C.3       9 UNK        -0.1966 
     27 N         -71.6628   27.7880  -75.9728 N.am      9 UNK        -0.4218 
     28 C         -71.1804   27.1044  -74.9219 C.2       9 UNK         0.5020 
     29 O         -70.6003   27.6320  -73.9722 O.2       9 UNK        -0.5274 
     30 CA        -71.3599   25.5700  -74.9250 C.3       8 UNK         0.0270 
     31 CB        -71.8492   25.0556  -73.5581 C.3       8 UNK        -0.1976 
     32 N         -72.2903   25.1162  -75.9624 N.am      8 UNK        -0.4313 
     33 C         -71.9530   24.7049  -77.1924 C.2       8 UNK         0.5041 
     34 O         -70.7891   24.5785  -77.5737 O.2       8 UNK        -0.5577 
     35 CA        -73.1014   24.4186  -78.1825 C.3       7 UNK         0.0284 
     36 CB        -73.4014   22.9123  -78.2381 C.3       7 UNK        -0.1958 
     37 N         -74.3395   25.1485  -77.8855 N.am      7 UNK        -0.4454 
     38 C         -74.4655   26.4835  -77.8975 C.2       7 UNK         0.5089 
     39 O         -73.5624   27.2522  -78.2259 O.2       7 UNK        -0.5125 
     40 CA        -75.7849   27.0611  -77.3576 C.3       6 UNK         0.0408 
     41 CB        -76.8683   27.0784  -78.4451 C.3       6 UNK        -0.1791 
     42 N         -76.2724   26.3462  -76.1745 N.am      6 UNK        -0.4762 
     43 C         -75.6030   26.2308  -75.0179 C.2       6 UNK         0.5007 
     44 O         -74.5129   26.7598  -74.8121 O.2       6 UNK        -0.5032 
     45 CA        -76.2266   25.3432  -73.9289 C.3       5 UNK         0.0783 
     46 C46       -77.2908   26.1332  -73.1421 C.3       11 UNK        -0.0857 
     47 S47       -78.0154   25.1820  -71.7592 S.3       11 UNK        -0.2512 
     48 C48       -77.1277   25.8367  -70.2998 C.3       11 UNK         0.0225 
     49 N         -76.7575   24.1140  -74.5163 N.am      5 UNK        -0.4615 
     50 C         -76.0067   23.0845  -74.9256 C.2       4 UNK         0.5053 
     51 O         -74.7856   23.0312  -74.7838 O.2       4 UNK        -0.5105 
     52 CA        -76.7391   21.9317  -75.6352 C.3       4 UNK         0.0263 
     53 CB        -77.1885   20.8737  -74.6152 C.3       4 UNK        -0.1981 
     54 N         -77.8984   22.3834  -76.4113 N.am      4 UNK        -0.4224 
     55 C         -77.8226   23.1544  -77.5060 C.2       3 UNK         0.4895 
     56 O         -76.7615   23.5174  -78.0135 O.2       3 UNK        -0.5091 
     57 CA        -79.1546   23.6483  -78.1016 C.3       3 UNK         0.0250 
     58 CB        -79.7252   22.6093  -79.0797 C.3       3 UNK        -0.1996 
     59 N         -80.1692   23.9885  -77.0939 N.am      3 UNK        -0.4254 
     60 C         -80.0130   24.9147  -76.1368 C.2       2 UNK         0.5004 
     61 O         -78.9772   25.5639  -75.9901 O.2       2 UNK        -0.5226 
     62 CA        -81.1794   25.0872  -75.1461 C.3       2 UNK         0.0269 
     63 CB        -81.2405   23.8863  -74.1860 C.3       2 UNK        -0.1926 
     64 N         -81.0943   26.3111  -74.3400 N.am      2 UNK        -0.4687 
     65 C         -81.1731   27.5673  -74.8051 C.2       1 UNK         0.5165 
     66 O         -81.3272   27.8489  -75.9939 O.2       1 UNK        -0.5079 
     67 H67       -83.9631   29.2643  -73.9341 H         1 UNK         0.0900 
     68 H68       -85.1355   28.3029  -73.0508 H         1 UNK         0.0900 
     69 H69       -84.0420   27.5090  -74.1765 H         1 UNK         0.0900 
     70 H70       -81.1908   28.1775  -71.7193 H         1 UNK         0.2959 
     71 H71       -81.6995   29.5390  -74.1884 H         1 UNK         0.1079 
     72 H72       -79.1866   29.3673  -74.4489 H         1 UNK         0.0837 
     73 H73       -79.1135   28.4348  -72.9865 H         1 UNK         0.0837 
     74 H74       -79.4676   31.1864  -70.2177 H         1 UNK         0.0685 
     75 H75       -80.3479   29.7173  -70.5244 H         1 UNK         0.0685 
     76 H76       -79.1976   27.5939  -70.5331 H         1 UNK         0.1434 
     77 H77       -74.9448   27.4539  -70.0162 H         1 UNK         0.1329 
     78 H78       -76.9199   31.2256  -70.5292 H         1 UNK         0.1335 
     79 H79       -73.9301   29.7170  -69.2115 H         1 UNK         0.0680 
     80 H80       -74.5838   31.1837  -69.8915 H         1 UNK         0.0680 
     81 H81       -75.0984   31.3966  -72.3121 H         1 UNK         0.1032 
     82 H82       -73.5821   31.7421  -73.0755 H         1 UNK         0.1032 
     83 H83       -75.3074   29.2842  -73.6680 H         1 UNK         0.0461 
     84 H84       -76.2543   31.3154  -76.8402 H         1 UNK         0.3453 
     85 H85       -74.9246   30.1927  -76.6904 H         1 UNK         0.3453 
     86 H86       -73.6715   28.4519  -74.8555 H         1 UNK         0.2984 
     87 H87       -71.9694   29.3515  -77.2443 H         1 UNK         0.0554 
     88 H88       -69.5004   29.1487  -76.8402 H         1 UNK         0.0847 
     89 H89       -69.7313   29.7796  -75.2088 H         1 UNK         0.0847 
     90 H90       -70.1023   30.7790  -76.6014 H         1 UNK         0.0847 
     91 H91       -72.1568   27.2647  -76.6875 H         1 UNK         0.3141 
     92 H92       -70.3747   25.1370  -75.1087 H         1 UNK         0.0743 
     93 H93       -72.0030   23.9763  -73.5715 H         1 UNK         0.0784 
     94 H94       -71.1192   25.2682  -72.7761 H         1 UNK         0.0784 
     95 H95       -72.7874   25.5230  -73.2594 H         1 UNK         0.0784 
     96 H96       -73.2730   25.2175  -75.7399 H         1 UNK         0.3213 
     97 H97       -72.7630   24.7360  -79.1711 H         1 UNK         0.0855 
     98 H98       -73.7563   22.5365  -77.2782 H         1 UNK         0.0814 
     99 H99       -72.5072   22.3452  -78.5001 H         1 UNK         0.0814 
    100 H100      -74.1602   22.6856  -78.9874 H         1 UNK         0.0814 
    101 H101      -75.1618   24.5897  -77.6705 H         1 UNK         0.3105 
    102 H102      -75.5954   28.0915  -77.0546 H         1 UNK         0.0547 
    103 H103      -76.5577   27.6914  -79.2921 H         1 UNK         0.0837 
    104 H104      -77.0744   26.0792  -78.8271 H         1 UNK         0.0837 
    105 H105      -77.8036   27.4934  -78.0684 H         1 UNK         0.0837 
    106 H106      -77.2015   25.9316  -76.2350 H         1 UNK         0.3020 
    107 H107      -75.4265   25.0743  -73.2350 H         1 UNK         0.1245 
    108 H108      -78.1112   26.4280  -73.7948 H         1 UNK         0.0781 
    109 H109      -76.8629   27.0696  -72.7854 H         1 UNK         0.0781 
    110 H110      -76.1194   25.4198  -70.2957 H         1 UNK         0.0836 
    111 H111      -77.6155   25.4755  -69.3937 H         1 UNK         0.0836 
    112 H112      -77.7479   24.1113  -74.7122 H         1 UNK         0.3022 
    113 H113      -76.0316   21.4661  -76.3249 H         1 UNK         0.0747 
    114 H114      -77.6430   20.0142  -75.1083 H         1 UNK         0.0793 
    115 H115      -76.3390   20.5029  -74.0396 H         1 UNK         0.0793 
    116 H116      -77.9118   21.2768  -73.9050 H         1 UNK         0.0793 
    117 H117      -78.8115   22.1251  -76.0670 H         1 UNK         0.3047 
    118 H118      -78.9402   24.5589  -78.6640 H         1 UNK         0.0822 
    119 H119      -79.9996   21.6828  -78.5738 H         1 UNK         0.0807 
    120 H120      -78.9944   22.3562  -79.8494 H         1 UNK         0.0807 
    121 H121      -80.6106   22.9888  -79.5903 H         1 UNK         0.0807 
    122 H122      -81.0434   23.4849  -77.1474 H         1 UNK         0.2946 
    123 H123      -82.1053   25.1322  -75.7238 H         1 UNK         0.1144 
    124 H124      -80.3321   23.8025  -73.5874 H         1 UNK         0.0793 
    125 H125      -81.3628   22.9469  -74.7266 H         1 UNK         0.0793 
    126 H126      -82.0845   23.9697  -73.5008 H         1 UNK         0.0793 
    127 H127      -80.9681   26.1836  -73.3467 H         1 UNK         0.2896 
@<TRIPOS>BOND
     1    1    2 1    
     2    1   67 1    
     3    1   68 1    
     4    1   69 1    
     5    2    3 2    
     6    2    4 am   BACKBONE|DICT|INTERRES
     7    4    5 1    
     8    4   70 1    
     9    5    6 1    
    10    5   65 1    
    11    5   71 1    
    12    6    7 1    
    13    6   72 1    
    14    6   73 1    
    15    7    8 1    
    16    8    9 1    
    17    8   74 1    
    18    8   75 1    
    19    9   10 ar   
    20    9   14 ar   
    21   10   11 ar   
    22   10   76 1    
    23   11   12 ar   
    24   11   48 1    
    25   12   13 ar   
    26   12   77 1    
    27   13   14 ar   
    28   13   15 1    
    29   14   78 1    
    30   15   16 1    
    31   15   79 1    
    32   15   80 1    
    33   16   17 1    
    34   17   18 1    
    35   17   81 1    
    36   17   82 1    
    37   18   19 1    
    38   18   22 1    
    39   18   83 1    
    40   19   20 am   BACKBONE|DICT|INTERRES
    41   19   21 2    
    42   20   84 1    
    43   20   85 1    
    44   22   23 am   BACKBONE|DICT|INTERRES
    45   22   86 1    
    46   23   24 2    
    47   23   25 1    
    48   25   26 1    
    49   25   27 1    
    50   25   87 1    
    51   26   88 1    
    52   26   89 1    
    53   26   90 1    
    54   27   28 am   BACKBONE|DICT|INTERRES
    55   27   91 1    
    56   28   29 2    
    57   28   30 1    
    58   30   31 1    
    59   30   32 1    
    60   30   92 1    
    61   31   93 1    
    62   31   94 1    
    63   31   95 1    
    64   32   33 am   BACKBONE|DICT|INTERRES
    65   32   96 1    
    66   33   34 2    
    67   33   35 1    
    68   35   36 1    
    69   35   37 1    
    70   35   97 1    
    71   36   98 1    
    72   36   99 1    
    73   36  100 1    
    74   37   38 am   BACKBONE|DICT|INTERRES
    75   37  101 1    
    76   38   39 2    
    77   38   40 1    
    78   40   41 1    
    79   40   42 1    
    80   40  102 1    
    81   41  103 1    
    82   41  104 1    
    83   41  105 1    
    84   42   43 am   BACKBONE|DICT|INTERRES
    85   42  106 1    
    86   43   44 2    
    87   43   45 1    
    88   45   46 1    
    89   45   49 1    
    90   45  107 1    
    91   46   47 1    
    92   46  108 1    
    93   46  109 1    
    94   47   48 1    
    95   48  110 1    
    96   48  111 1    
    97   49   50 am   BACKBONE|DICT|INTERRES
    98   49  112 1    
    99   50   51 2    
   100   50   52 1    
   101   52   53 1    
   102   52   54 1    
   103   52  113 1    
   104   53  114 1    
   105   53  115 1    
   106   53  116 1    
   107   54   55 am   BACKBONE|DICT|INTERRES
   108   54  117 1    
   109   55   56 2    
   110   55   57 1    
   111   57   58 1    
   112   57   59 1    
   113   57  118 1    
   114   58  119 1    
   115   58  120 1    
   116   58  121 1    
   117   59   60 am   BACKBONE|DICT|INTERRES
   118   59  122 1    
   119   60   61 2    
   120   60   62 1    
   121   62   63 1    
   122   62   64 1    
   123   62  123 1    
   124   63  124 1    
   125   63  125 1    
   126   63  126 1    
   127   64   65 am   BACKBONE|DICT|INTERRES
   128   64  127 1    
   129   65   66 2    
@<TRIPOS>SUBSTRUCTURE
     1 UNK         1 GROUP             0       ****    0 ROOT    
