@<TRIPOS>MOLECULE
3R135
127   129    1
SMALL
USER_CHARGES


@<TRIPOS>ATOM
      1 CA        -76.9236   23.2010  -72.9846 C.3       0 UNK        -0.1998 
      2 C         -78.3802   23.6134  -72.8433 C.2       0 UNK         0.4909 
      3 O         -79.2223   23.1192  -73.5900 O.2       0 UNK        -0.5240 
      4 N         -78.6566   24.5183  -71.8942 N.am      1 UNK        -0.4739 
      5 CA        -79.9460   24.9928  -71.3641 C.3       1 UNK         0.0864 
      6 C6        -79.8114   26.3697  -70.6477 C.3       11 UNK        -0.0881 
      7 S7        -78.3063   26.5961  -69.6275 S.3       11 UNK        -0.2682 
      8 C8        -77.0221   27.1211  -70.8241 C.3       11 UNK         0.0289 
      9 C9        -77.3447   28.4208  -71.5501 C.ar      11 UNK        -0.0687 
     10 C10       -78.0548   28.4024  -72.7563 C.ar      11 UNK        -0.0823 
     11 C11       -78.3727   29.5946  -73.4130 C.ar      11 UNK        -0.0830 
     12 C12       -77.9153   30.8067  -72.8904 C.ar      11 UNK        -0.1021 
     13 C13       -77.1660   30.8355  -71.7113 C.ar      11 UNK        -0.0753 
     14 C14       -76.9013   29.6417  -71.0334 C.ar      11 UNK        -0.0933 
     15 C15       -76.6535   32.1630  -71.1763 C.3       11 UNK         0.0166 
     16 S16       -75.1540   32.6990  -72.0588 S.3       11 UNK        -0.2615 
     17 C17       -73.8730   31.7033  -71.2255 C.3       11 UNK        -0.0865 
     18 CA        -72.5914   31.5411  -72.0835 C.3       10 UNK         0.0862 
     19 C         -71.4116   31.0056  -71.2163 C.2       10 UNK         0.5551 
     20 N         -70.8425   29.8380  -71.4889 N.am      10 UNK        -0.7319 
     21 O         -70.9982   31.6749  -70.2724 O.2       10 UNK        -0.5018 
     22 N         -72.8497   30.7785  -73.3186 N.am      10 UNK        -0.4509 
     23 C         -72.0520   30.7877  -74.3949 C.2       10 UNK         0.4899 
     24 O         -71.0681   31.5225  -74.5015 O.2       10 UNK        -0.4839 
     25 CA        -72.4038   29.8102  -75.5397 C.3       9 UNK         0.0222 
     26 CB        -71.2095   29.5539  -76.4821 C.3       9 UNK        -0.1966 
     27 N         -72.9716   28.5245  -75.1089 N.am      9 UNK        -0.4218 
     28 C         -72.4728   27.6690  -74.2022 C.2       9 UNK         0.5020 
     29 O         -71.4783   27.8912  -73.5110 O.2       9 UNK        -0.5274 
     30 CA        -73.2127   26.3312  -74.0432 C.3       8 UNK         0.0270 
     31 CB        -74.5964   26.5366  -73.4063 C.3       8 UNK        -0.1976 
     32 N         -73.3445   25.6133  -75.3128 N.am      8 UNK        -0.4313 
     33 C         -72.3187   25.0976  -76.0078 C.2       8 UNK         0.5041 
     34 O         -71.1489   25.1096  -75.6230 O.2       8 UNK        -0.5577 
     35 CA        -72.6502   24.4616  -77.3662 C.3       7 UNK         0.0284 
     36 CB        -73.0792   22.9958  -77.1896 C.3       7 UNK        -0.1958 
     37 N         -73.6970   25.2113  -78.0632 N.am      7 UNK        -0.4454 
     38 C         -73.4692   26.3196  -78.7834 C.2       7 UNK         0.5089 
     39 O         -72.3451   26.7657  -79.0140 O.2       7 UNK        -0.5125 
     40 CA        -74.6949   27.0665  -79.3441 C.3       6 UNK         0.0408 
     41 CB        -74.9623   26.6399  -80.7961 C.3       6 UNK        -0.1791 
     42 N         -75.9167   26.8851  -78.5549 N.am      6 UNK        -0.4762 
     43 C         -76.0912   27.3307  -77.3015 C.2       6 UNK         0.5007 
     44 O         -75.2330   27.9481  -76.6710 O.2       6 UNK        -0.5032 
     45 CA        -77.4233   26.9581  -76.6111 C.3       5 UNK         0.0783 
     46 C46       -78.5348   27.9906  -76.9191 C.3       11 UNK        -0.0857 
     47 S47       -78.2325   29.6330  -76.1789 S.3       11 UNK        -0.2512 
     48 C48       -79.2389   29.5900  -74.6636 C.3       11 UNK         0.0225 
     49 N         -77.8684   25.5898  -76.9229 N.am      5 UNK        -0.4615 
     50 C         -77.1439   24.4783  -76.7317 C.2       4 UNK         0.5053 
     51 O         -76.0060   24.4899  -76.2587 O.2       4 UNK        -0.5105 
     52 CA        -77.8001   23.1525  -77.1451 C.3       4 UNK         0.0263 
     53 CB        -76.9240   21.9226  -76.8416 C.3       4 UNK        -0.1981 
     54 N         -79.0924   23.0069  -76.4777 N.am      4 UNK        -0.4224 
     55 C         -80.2146   22.5446  -77.0461 C.2       3 UNK         0.4895 
     56 O         -80.2953   22.1859  -78.2213 O.2       3 UNK        -0.5091 
     57 CA        -81.4667   22.4932  -76.1555 C.3       3 UNK         0.0250 
     58 CB        -81.5020   21.1909  -75.3391 C.3       3 UNK        -0.1996 
     59 N         -81.5092   23.6440  -75.2512 N.am      3 UNK        -0.4254 
     60 C         -82.0293   24.8353  -75.5731 C.2       2 UNK         0.5004 
     61 O         -82.6528   25.0397  -76.6155 O.2       2 UNK        -0.5226 
     62 CA        -81.7755   26.0232  -74.6258 C.3       2 UNK         0.0269 
     63 CB        -83.0904   26.6789  -74.1535 C.3       2 UNK        -0.1926 
     64 N         -80.8648   25.7469  -73.5034 N.am      2 UNK        -0.4687 
     65 C         -81.1088   25.0567  -72.3782 C.2       1 UNK         0.5165 
     66 O         -82.1707   24.4876  -72.1256 O.2       1 UNK        -0.5079 
     67 H67       -76.3296   23.5004  -72.1215 H         1 UNK         0.0900 
     68 H68       -76.4852   23.6511  -73.8719 H         1 UNK         0.0900 
     69 H69       -76.8495   22.1183  -73.0817 H         1 UNK         0.0900 
     70 H70       -77.8799   24.8513  -71.3415 H         1 UNK         0.2959 
     71 H71       -80.2329   24.2563  -70.6109 H         1 UNK         0.1079 
     72 H72       -79.8879   27.2025  -71.3442 H         1 UNK         0.0837 
     73 H73       -80.6648   26.5007  -69.9795 H         1 UNK         0.0837 
     74 H74       -76.8347   26.3339  -71.5511 H         1 UNK         0.0685 
     75 H75       -76.0835   27.2358  -70.2794 H         1 UNK         0.0685 
     76 H76       -78.3828   27.4601  -73.1682 H         1 UNK         0.1434 
     77 H77       -78.1391   31.7315  -73.4049 H         1 UNK         0.1329 
     78 H78       -76.3401   29.6601  -70.1092 H         1 UNK         0.1335 
     79 H79       -76.4525   32.1027  -70.1054 H         1 UNK         0.0680 
     80 H80       -77.4245   32.9251  -71.2989 H         1 UNK         0.0680 
     81 H81       -73.6485   32.2004  -70.2795 H         1 UNK         0.1032 
     82 H82       -74.2721   30.7227  -70.9644 H         1 UNK         0.1032 
     83 H83       -72.2843   32.5437  -72.3883 H         1 UNK         0.0461 
     84 H84       -71.1533   29.2639  -72.2687 H         1 UNK         0.3453 
     85 H85       -70.0792   29.5204  -70.9138 H         1 UNK         0.3453 
     86 H86       -73.6438   30.1564  -73.3068 H         1 UNK         0.2984 
     87 H87       -73.1845   30.3004  -76.1229 H         1 UNK         0.0554 
     88 H88       -70.8447   30.4829  -76.9219 H         1 UNK         0.0847 
     89 H89       -71.4892   28.8968  -77.3058 H         1 UNK         0.0847 
     90 H90       -70.3752   29.0907  -75.9539 H         1 UNK         0.0847 
     91 H91       -73.8123   28.2429  -75.6146 H         1 UNK         0.3141 
     92 H92       -72.6237   25.7056  -73.3690 H         1 UNK         0.0743 
     93 H93       -74.5054   27.0515  -72.4492 H         1 UNK         0.0784 
     94 H94       -75.2561   27.1347  -74.0348 H         1 UNK         0.0784 
     95 H95       -75.0865   25.5827  -73.2175 H         1 UNK         0.0784 
     96 H96       -74.2803   25.4985  -75.6864 H         1 UNK         0.3213 
     97 H97       -71.7426   24.4726  -77.9742 H         1 UNK         0.0855 
     98 H98       -73.9251   22.8972  -76.5096 H         1 UNK         0.0814 
     99 H99       -72.2632   22.4042  -76.7728 H         1 UNK         0.0814 
    100 H100      -73.3547   22.5423  -78.1418 H         1 UNK         0.0814 
    101 H101      -74.6528   24.9373  -77.8760 H         1 UNK         0.3105 
    102 H102      -74.4546   28.1319  -79.3419 H         1 UNK         0.0547 
    103 H103      -75.2305   25.5850  -80.8656 H         1 UNK         0.0837 
    104 H104      -75.7690   27.2232  -81.2404 H         1 UNK         0.0837 
    105 H105      -74.0775   26.7916  -81.4161 H         1 UNK         0.0837 
    106 H106      -76.6710   26.3757  -78.9925 H         1 UNK         0.3020 
    107 H107      -77.2316   26.9792  -75.5365 H         1 UNK         0.1245 
    108 H108      -79.5007   27.6214  -76.5763 H         1 UNK         0.0781 
    109 H109      -78.6471   28.1206  -77.9973 H         1 UNK         0.0781 
    110 H110      -79.8892   30.4662  -74.6573 H         1 UNK         0.0836 
    111 H111      -79.9083   28.7304  -74.6553 H         1 UNK         0.0836 
    112 H112      -78.7881   25.4948  -77.3289 H         1 UNK         0.3022 
    113 H113      -77.9443   23.2067  -78.2261 H         1 UNK         0.0747 
    114 H114      -75.9776   21.9752  -77.3798 H         1 UNK         0.0793 
    115 H115      -77.4168   21.0005  -77.1497 H         1 UNK         0.0793 
    116 H116      -76.6965   21.8404  -75.7784 H         1 UNK         0.0793 
    117 H117      -79.1149   23.2249  -75.4841 H         1 UNK         0.3047 
    118 H118      -82.3445   22.5059  -76.8055 H         1 UNK         0.0822 
    119 H119      -81.5006   20.3201  -75.9961 H         1 UNK         0.0807 
    120 H120      -82.4015   21.1333  -74.7260 H         1 UNK         0.0807 
    121 H121      -80.6401   21.1003  -74.6770 H         1 UNK         0.0807 
    122 H122      -80.9721   23.5614  -74.3932 H         1 UNK         0.2946 
    123 H123      -81.2631   26.7637  -75.2393 H         1 UNK         0.1144 
    124 H124      -83.6740   27.0352  -75.0034 H         1 UNK         0.0793 
    125 H125      -82.8984   27.5388  -73.5118 H         1 UNK         0.0793 
    126 H126      -83.7222   25.9811  -73.6038 H         1 UNK         0.0793 
    127 H127      -79.9282   26.1031  -73.6154 H         1 UNK         0.2896 
@<TRIPOS>BOND
     1    1    2 1    
     2    1   67 1    
     3    1   68 1    
     4    1   69 1    
     5    2    3 2    
     6    2    4 am   BACKBONE|DICT|INTERRES
     7    4    5 1    
     8    4   70 1    
     9    5    6 1    
    10    5   65 1    
    11    5   71 1    
    12    6    7 1    
    13    6   72 1    
    14    6   73 1    
    15    7    8 1    
    16    8    9 1    
    17    8   74 1    
    18    8   75 1    
    19    9   10 ar   
    20    9   14 ar   
    21   10   11 ar   
    22   10   76 1    
    23   11   12 ar   
    24   11   48 1    
    25   12   13 ar   
    26   12   77 1    
    27   13   14 ar   
    28   13   15 1    
    29   14   78 1    
    30   15   16 1    
    31   15   79 1    
    32   15   80 1    
    33   16   17 1    
    34   17   18 1    
    35   17   81 1    
    36   17   82 1    
    37   18   19 1    
    38   18   22 1    
    39   18   83 1    
    40   19   20 am   BACKBONE|DICT|INTERRES
    41   19   21 2    
    42   20   84 1    
    43   20   85 1    
    44   22   23 am   BACKBONE|DICT|INTERRES
    45   22   86 1    
    46   23   24 2    
    47   23   25 1    
    48   25   26 1    
    49   25   27 1    
    50   25   87 1    
    51   26   88 1    
    52   26   89 1    
    53   26   90 1    
    54   27   28 am   BACKBONE|DICT|INTERRES
    55   27   91 1    
    56   28   29 2    
    57   28   30 1    
    58   30   31 1    
    59   30   32 1    
    60   30   92 1    
    61   31   93 1    
    62   31   94 1    
    63   31   95 1    
    64   32   33 am   BACKBONE|DICT|INTERRES
    65   32   96 1    
    66   33   34 2    
    67   33   35 1    
    68   35   36 1    
    69   35   37 1    
    70   35   97 1    
    71   36   98 1    
    72   36   99 1    
    73   36  100 1    
    74   37   38 am   BACKBONE|DICT|INTERRES
    75   37  101 1    
    76   38   39 2    
    77   38   40 1    
    78   40   41 1    
    79   40   42 1    
    80   40  102 1    
    81   41  103 1    
    82   41  104 1    
    83   41  105 1    
    84   42   43 am   BACKBONE|DICT|INTERRES
    85   42  106 1    
    86   43   44 2    
    87   43   45 1    
    88   45   46 1    
    89   45   49 1    
    90   45  107 1    
    91   46   47 1    
    92   46  108 1    
    93   46  109 1    
    94   47   48 1    
    95   48  110 1    
    96   48  111 1    
    97   49   50 am   BACKBONE|DICT|INTERRES
    98   49  112 1    
    99   50   51 2    
   100   50   52 1    
   101   52   53 1    
   102   52   54 1    
   103   52  113 1    
   104   53  114 1    
   105   53  115 1    
   106   53  116 1    
   107   54   55 am   BACKBONE|DICT|INTERRES
   108   54  117 1    
   109   55   56 2    
   110   55   57 1    
   111   57   58 1    
   112   57   59 1    
   113   57  118 1    
   114   58  119 1    
   115   58  120 1    
   116   58  121 1    
   117   59   60 am   BACKBONE|DICT|INTERRES
   118   59  122 1    
   119   60   61 2    
   120   60   62 1    
   121   62   63 1    
   122   62   64 1    
   123   62  123 1    
   124   63  124 1    
   125   63  125 1    
   126   63  126 1    
   127   64   65 am   BACKBONE|DICT|INTERRES
   128   64  127 1    
   129   65   66 2    
@<TRIPOS>SUBSTRUCTURE
     1 UNK         1 GROUP             0       ****    0 ROOT    
