@<TRIPOS>MOLECULE
3R135
127   129    1
SMALL
USER_CHARGES


@<TRIPOS>ATOM
      1 CA        -81.4498   23.4266  -71.1293 C.3       0 UNK        -0.1998 
      2 C         -82.7107   24.2608  -71.2928 C.2       0 UNK         0.4909 
      3 O         -83.8059   23.7968  -70.9754 O.2       0 UNK        -0.5240 
      4 N         -82.5724   25.4839  -71.8143 N.am      1 UNK        -0.4739 
      5 CA        -83.6452   26.4529  -72.0816 C.3       1 UNK         0.0864 
      6 C6        -83.1264   27.9168  -71.9763 C.3       11 UNK        -0.0881 
      7 S7        -81.5143   28.2053  -72.7998 S.3       11 UNK        -0.2682 
      8 C8        -80.4489   28.4050  -71.3381 C.3       11 UNK         0.0289 
      9 C9        -78.9688   28.3091  -71.6762 C.ar      11 UNK        -0.0687 
     10 C10       -78.2193   27.2122  -71.2383 C.ar      11 UNK        -0.0823 
     11 C11       -76.8424   27.1569  -71.4696 C.ar      11 UNK        -0.0830 
     12 C12       -76.2244   28.1998  -72.1638 C.ar      11 UNK        -0.1021 
     13 C13       -76.9614   29.2913  -72.6343 C.ar      11 UNK        -0.0753 
     14 C14       -78.3364   29.3393  -72.3799 C.ar      11 UNK        -0.0933 
     15 C15       -76.2930   30.4148  -73.4257 C.3       11 UNK         0.0166 
     16 S16       -74.7840   31.0675  -72.6323 S.3       11 UNK        -0.2615 
     17 C17       -73.4796   29.9718  -73.3004 C.3       11 UNK        -0.0865 
     18 CA        -72.3148   30.7559  -73.9631 C.3       10 UNK         0.0862 
     19 C         -71.2695   31.2291  -72.9043 C.2       10 UNK         0.5551 
     20 N         -70.0746   30.6509  -72.8413 N.am      10 UNK        -0.7319 
     21 O         -71.5427   32.1454  -72.1335 O.2       10 UNK        -0.5018 
     22 N         -71.7427   29.9926  -75.0828 N.am      10 UNK        -0.4509 
     23 C         -70.8963   30.4927  -75.9938 C.2       10 UNK         0.4899 
     24 O         -70.6353   31.6927  -76.0929 O.2       10 UNK        -0.4839 
     25 CA        -70.2194   29.4846  -76.9467 C.3       9 UNK         0.0222 
     26 CB        -68.8172   29.9498  -77.3926 C.3       9 UNK        -0.1966 
     27 N         -70.1618   28.1106  -76.4256 N.am      9 UNK        -0.4218 
     28 C         -69.5843   27.6861  -75.2875 C.2       9 UNK         0.5020 
     29 O         -68.9964   28.4356  -74.5059 O.2       9 UNK        -0.5274 
     30 CA        -69.7219   26.1952  -74.9214 C.3       8 UNK         0.0270 
     31 CB        -70.3452   26.0330  -73.5225 C.3       8 UNK        -0.1976 
     32 N         -70.5413   25.4609  -75.8881 N.am      8 UNK        -0.4313 
     33 C         -70.0640   24.7662  -76.9309 C.2       8 UNK         0.5041 
     34 O         -68.8638   24.5940  -77.1457 O.2       8 UNK        -0.5577 
     35 CA        -71.0921   24.1829  -77.9213 C.3       7 UNK         0.0284 
     36 CB        -71.3639   22.7040  -77.6019 C.3       7 UNK        -0.1958 
     37 N         -72.3652   24.9110  -77.9515 N.am      7 UNK        -0.4454 
     38 C         -72.5152   26.1899  -78.3257 C.2       7 UNK         0.5089 
     39 O         -71.5951   26.8884  -78.7485 O.2       7 UNK        -0.5125 
     40 CA        -73.9047   26.8194  -78.1219 C.3       6 UNK         0.0408 
     41 CB        -74.7327   26.7297  -79.4124 C.3       6 UNK        -0.1791 
     42 N         -74.6655   26.2309  -77.0139 N.am      6 UNK        -0.4762 
     43 C         -74.2908   26.2081  -75.7271 C.2       6 UNK         0.5007 
     44 O         -73.2290   26.6916  -75.3261 O.2       6 UNK        -0.5032 
     45 CA        -75.2693   25.5327  -74.7407 C.3       5 UNK         0.0783 
     46 C46       -74.6532   25.3486  -73.3283 C.3       11 UNK        -0.0857 
     47 S47       -75.8302   24.6389  -72.1239 S.3       11 UNK        -0.2512 
     48 C48       -76.0146   25.9989  -70.9249 C.3       11 UNK         0.0225 
     49 N         -76.5575   26.2367  -74.7148 N.am      5 UNK        -0.4615 
     50 C         -77.5191   26.1053  -75.6343 C.2       4 UNK         0.5053 
     51 O         -77.3976   25.4155  -76.6511 O.2       4 UNK        -0.5105 
     52 CA        -78.8066   26.9076  -75.4061 C.3       4 UNK         0.0263 
     53 CB        -78.6635   28.3275  -75.9760 C.3       4 UNK        -0.1981 
     54 N         -79.9272   26.2425  -76.0686 N.am      4 UNK        -0.4224 
     55 C         -80.6789   25.2928  -75.5045 C.2       3 UNK         0.4895 
     56 O         -80.5897   24.9425  -74.3238 O.2       3 UNK        -0.5091 
     57 CA        -81.6986   24.6030  -76.4168 C.3       3 UNK         0.0250 
     58 CB        -81.1337   23.2955  -76.9968 C.3       3 UNK        -0.1996 
     59 N         -82.8722   24.3230  -75.6050 N.am      3 UNK        -0.4254 
     60 C         -84.1460   24.3656  -76.0090 C.2       2 UNK         0.5004 
     61 O         -84.4946   24.4666  -77.1858 O.2       2 UNK        -0.5226 
     62 CA        -85.2130   24.3267  -74.8977 C.3       2 UNK         0.0269 
     63 CB        -85.7156   22.8908  -74.6791 C.3       2 UNK        -0.1926 
     64 N         -84.7182   24.8657  -73.6246 N.am      2 UNK        -0.4687 
     65 C         -84.3657   26.1434  -73.4153 C.2       1 UNK         0.5165 
     66 O         -84.5643   27.0350  -74.2425 O.2       1 UNK        -0.5079 
     67 H67       -80.5685   23.9458  -71.5067 H         1 UNK         0.0900 
     68 H68       -81.5472   22.4887  -71.6752 H         1 UNK         0.0900 
     69 H69       -81.2854   23.1955  -70.0774 H         1 UNK         0.0900 
     70 H70       -81.6597   25.7806  -72.1367 H         1 UNK         0.2959 
     71 H71       -84.4106   26.3340  -71.3112 H         1 UNK         0.1079 
     72 H72       -83.8544   28.6296  -72.3682 H         1 UNK         0.0837 
     73 H73       -83.0332   28.1778  -70.9212 H         1 UNK         0.0837 
     74 H74       -80.7113   27.6493  -70.5958 H         1 UNK         0.0685 
     75 H75       -80.6536   29.3720  -70.8763 H         1 UNK         0.0685 
     76 H76       -78.7010   26.4144  -70.6892 H         1 UNK         0.1434 
     77 H77       -75.1600   28.1660  -72.3244 H         1 UNK         0.1329 
     78 H78       -78.9210   30.1820  -72.7234 H         1 UNK         0.1335 
     79 H79       -76.9865   31.2489  -73.5432 H         1 UNK         0.0680 
     80 H80       -76.0665   30.0699  -74.4349 H         1 UNK         0.0680 
     81 H81       -73.1119   29.3213  -72.5042 H         1 UNK         0.1032 
     82 H82       -73.9359   29.3020  -74.0310 H         1 UNK         0.1032 
     83 H83       -72.7300   31.6628  -74.4075 H         1 UNK         0.0461 
     84 H84       -69.8145   29.9036  -73.4775 H         1 UNK         0.3453 
     85 H85       -69.4106   30.9734  -72.1560 H         1 UNK         0.3453 
     86 H86       -71.9048   28.9955  -75.0787 H         1 UNK         0.2984 
     87 H87       -70.8510   29.4434  -77.8350 H         1 UNK         0.0554 
     88 H88       -68.3624   29.2358  -78.0792 H         1 UNK         0.0847 
     89 H89       -68.1443   30.0748  -76.5437 H         1 UNK         0.0847 
     90 H90       -68.8664   30.9076  -77.9119 H         1 UNK         0.0847 
     91 H91       -70.6151   27.4218  -77.0161 H         1 UNK         0.3141 
     92 H92       -68.7142   25.7758  -74.8927 H         1 UNK         0.0743 
     93 H93       -69.7206   26.4985  -72.7589 H         1 UNK         0.0784 
     94 H94       -71.3311   26.4947  -73.4594 H         1 UNK         0.0784 
     95 H95       -70.4498   24.9816  -73.2543 H         1 UNK         0.0784 
     96 H96       -71.5439   25.5880  -75.7974 H         1 UNK         0.3213 
     97 H97       -70.6519   24.2441  -78.9190 H         1 UNK         0.0855 
     98 H98       -71.8248   22.5795  -76.6212 H         1 UNK         0.0814 
     99 H99       -70.4367   22.1290  -77.6007 H         1 UNK         0.0814 
    100 H100      -72.0214   22.2507  -78.3440 H         1 UNK         0.0814 
    101 H101      -73.1829   24.4167  -77.6252 H         1 UNK         0.3105 
    102 H102      -73.7513   27.8748  -77.8871 H         1 UNK         0.0547 
    103 H103      -74.9465   25.6955  -79.6848 H         1 UNK         0.0837 
    104 H104      -75.6835   27.2533  -79.3110 H         1 UNK         0.0837 
    105 H105      -74.2018   27.1849  -80.2498 H         1 UNK         0.0837 
    106 H106      -75.5812   25.8474  -77.2344 H         1 UNK         0.3020 
    107 H107      -75.4496   24.5276  -75.1300 H         1 UNK         0.1245 
    108 H108      -74.2484   26.2837  -72.9441 H         1 UNK         0.0781 
    109 H109      -73.7985   24.6720  -73.3866 H         1 UNK         0.0781 
    110 H110      -75.0295   26.3499  -70.6133 H         1 UNK         0.0836 
    111 H111      -76.4858   25.6030  -70.0239 H         1 UNK         0.0836 
    112 H112      -76.7250   26.8210  -73.9063 H         1 UNK         0.3022 
    113 H113      -78.9971   26.9755  -74.3327 H         1 UNK         0.0747 
    114 H114      -79.5606   28.9181  -75.7886 H         1 UNK         0.0793 
    115 H115      -77.8300   28.8534  -75.5120 H         1 UNK         0.0793 
    116 H116      -78.4832   28.3179  -77.0517 H         1 UNK         0.0793 
    117 H117      -80.0286   26.4224  -77.0570 H         1 UNK         0.3047 
    118 H118      -81.9677   25.2816  -77.2295 H         1 UNK         0.0822 
    119 H119      -80.2424   23.4875  -77.5957 H         1 UNK         0.0807 
    120 H120      -81.8604   22.8021  -77.6423 H         1 UNK         0.0807 
    121 H121      -80.8539   22.5944  -76.2094 H         1 UNK         0.0807 
    122 H122      -82.6795   24.2751  -74.6125 H         1 UNK         0.2946 
    123 H123      -86.0517   24.9442  -75.2273 H         1 UNK         0.1144 
    124 H124      -86.1084   22.4700  -75.6059 H         1 UNK         0.0793 
    125 H125      -86.5201   22.8597  -73.9441 H         1 UNK         0.0793 
    126 H126      -84.9183   22.2316  -74.3332 H         1 UNK         0.0793 
    127 H127      -84.5447   24.2054  -72.8740 H         1 UNK         0.2896 
@<TRIPOS>BOND
     1    1    2 1    
     2    1   67 1    
     3    1   68 1    
     4    1   69 1    
     5    2    3 2    
     6    2    4 am   BACKBONE|DICT|INTERRES
     7    4    5 1    
     8    4   70 1    
     9    5    6 1    
    10    5   65 1    
    11    5   71 1    
    12    6    7 1    
    13    6   72 1    
    14    6   73 1    
    15    7    8 1    
    16    8    9 1    
    17    8   74 1    
    18    8   75 1    
    19    9   10 ar   
    20    9   14 ar   
    21   10   11 ar   
    22   10   76 1    
    23   11   12 ar   
    24   11   48 1    
    25   12   13 ar   
    26   12   77 1    
    27   13   14 ar   
    28   13   15 1    
    29   14   78 1    
    30   15   16 1    
    31   15   79 1    
    32   15   80 1    
    33   16   17 1    
    34   17   18 1    
    35   17   81 1    
    36   17   82 1    
    37   18   19 1    
    38   18   22 1    
    39   18   83 1    
    40   19   20 am   BACKBONE|DICT|INTERRES
    41   19   21 2    
    42   20   84 1    
    43   20   85 1    
    44   22   23 am   BACKBONE|DICT|INTERRES
    45   22   86 1    
    46   23   24 2    
    47   23   25 1    
    48   25   26 1    
    49   25   27 1    
    50   25   87 1    
    51   26   88 1    
    52   26   89 1    
    53   26   90 1    
    54   27   28 am   BACKBONE|DICT|INTERRES
    55   27   91 1    
    56   28   29 2    
    57   28   30 1    
    58   30   31 1    
    59   30   32 1    
    60   30   92 1    
    61   31   93 1    
    62   31   94 1    
    63   31   95 1    
    64   32   33 am   BACKBONE|DICT|INTERRES
    65   32   96 1    
    66   33   34 2    
    67   33   35 1    
    68   35   36 1    
    69   35   37 1    
    70   35   97 1    
    71   36   98 1    
    72   36   99 1    
    73   36  100 1    
    74   37   38 am   BACKBONE|DICT|INTERRES
    75   37  101 1    
    76   38   39 2    
    77   38   40 1    
    78   40   41 1    
    79   40   42 1    
    80   40  102 1    
    81   41  103 1    
    82   41  104 1    
    83   41  105 1    
    84   42   43 am   BACKBONE|DICT|INTERRES
    85   42  106 1    
    86   43   44 2    
    87   43   45 1    
    88   45   46 1    
    89   45   49 1    
    90   45  107 1    
    91   46   47 1    
    92   46  108 1    
    93   46  109 1    
    94   47   48 1    
    95   48  110 1    
    96   48  111 1    
    97   49   50 am   BACKBONE|DICT|INTERRES
    98   49  112 1    
    99   50   51 2    
   100   50   52 1    
   101   52   53 1    
   102   52   54 1    
   103   52  113 1    
   104   53  114 1    
   105   53  115 1    
   106   53  116 1    
   107   54   55 am   BACKBONE|DICT|INTERRES
   108   54  117 1    
   109   55   56 2    
   110   55   57 1    
   111   57   58 1    
   112   57   59 1    
   113   57  118 1    
   114   58  119 1    
   115   58  120 1    
   116   58  121 1    
   117   59   60 am   BACKBONE|DICT|INTERRES
   118   59  122 1    
   119   60   61 2    
   120   60   62 1    
   121   62   63 1    
   122   62   64 1    
   123   62  123 1    
   124   63  124 1    
   125   63  125 1    
   126   63  126 1    
   127   64   65 am   BACKBONE|DICT|INTERRES
   128   64  127 1    
   129   65   66 2    
@<TRIPOS>SUBSTRUCTURE
     1 UNK         1 GROUP             0       ****    0 ROOT    
