@<TRIPOS>MOLECULE
3R135
127   129    1
SMALL
USER_CHARGES


@<TRIPOS>ATOM
      1 CA        -80.2701   24.3136  -69.3130 C.3       0 UNK        -0.1998 
      2 C         -81.5461   24.5521  -70.1067 C.2       0 UNK         0.4909 
      3 O         -82.5251   23.8258  -69.9296 O.2       0 UNK        -0.5240 
      4 N         -81.5425   25.5699  -70.9750 N.am      1 UNK        -0.4739 
      5 CA        -82.6297   25.8845  -71.9064 C.3       1 UNK         0.0864 
      6 C6        -82.5557   27.3599  -72.3827 C.3       11 UNK        -0.0881 
      7 S7        -80.9924   27.8018  -73.2233 S.3       11 UNK        -0.2682 
      8 C8        -80.2007   28.8340  -71.9513 C.3       11 UNK         0.0289 
      9 C9        -78.7957   29.2452  -72.3624 C.ar      11 UNK        -0.0687 
     10 C10       -78.6134   30.1213  -73.4358 C.ar      11 UNK        -0.0823 
     11 C11       -77.3299   30.5169  -73.8221 C.ar      11 UNK        -0.0830 
     12 C12       -76.2243   30.0551  -73.1030 C.ar      11 UNK        -0.1021 
     13 C13       -76.3927   29.1706  -72.0329 C.ar      11 UNK        -0.0753 
     14 C14       -77.6803   28.7646  -71.6685 C.ar      11 UNK        -0.0933 
     15 C15       -75.1757   28.6551  -71.2831 C.3       11 UNK         0.0166 
     16 S16       -74.3426   27.3558  -72.2432 S.3       11 UNK        -0.2615 
     17 C17       -72.6045   27.5454  -71.7142 C.3       11 UNK        -0.0865 
     18 CA        -71.9021   28.8023  -72.3014 C.3       10 UNK         0.0862 
     19 C         -70.4032   28.8683  -71.8873 C.2       10 UNK         0.5551 
     20 N         -69.4556   29.0200  -72.8065 N.am      10 UNK        -0.7319 
     21 O         -70.0934   28.7976  -70.7004 O.2       10 UNK        -0.5018 
     22 N         -72.1138   28.9298  -73.7498 N.am      10 UNK        -0.4509 
     23 C         -72.2949   30.0882  -74.3967 C.2       10 UNK         0.4899 
     24 O         -72.3753   31.1790  -73.8295 O.2       10 UNK        -0.4839 
     25 CA        -72.4162   30.0245  -75.9333 C.3       9 UNK         0.0222 
     26 CB        -71.9493   31.3241  -76.6226 C.3       9 UNK        -0.1966 
     27 N         -71.7708   28.8514  -76.5369 N.am      9 UNK        -0.4218 
     28 C         -70.4722   28.5199  -76.4556 C.2       9 UNK         0.5020 
     29 O         -69.6309   29.2001  -75.8633 O.2       9 UNK        -0.5274 
     30 CA        -70.0569   27.1837  -77.1061 C.3       8 UNK         0.0270 
     31 CB        -68.6425   26.7349  -76.6814 C.3       8 UNK        -0.1976 
     32 N         -71.0129   26.0903  -76.8836 N.am      8 UNK        -0.4313 
     33 C         -71.5067   25.6522  -75.7161 C.2       8 UNK         0.5041 
     34 O         -71.2748   26.1866  -74.6305 O.2       8 UNK        -0.5577 
     35 CA        -72.4362   24.4238  -75.7915 C.3       7 UNK         0.0284 
     36 CB        -72.8494   23.9141  -74.3982 C.3       7 UNK        -0.1958 
     37 N         -73.6394   24.7117  -76.5767 N.am      7 UNK        -0.4454 
     38 C         -73.6869   24.7867  -77.9164 C.2       7 UNK         0.5089 
     39 O         -72.7199   24.5346  -78.6375 O.2       7 UNK        -0.5125 
     40 CA        -74.9980   25.2650  -78.5729 C.3       6 UNK         0.0408 
     41 CB        -75.7946   24.0650  -79.1068 C.3       6 UNK        -0.1791 
     42 N         -75.8526   26.0618  -77.6876 N.am      6 UNK        -0.4762 
     43 C         -75.4974   27.2259  -77.1171 C.2       6 UNK         0.5007 
     44 O         -74.4351   27.7961  -77.3702 O.2       6 UNK        -0.5032 
     45 CA        -76.4494   27.8253  -76.0513 C.3       5 UNK         0.0783 
     46 C46       -77.2292   29.0482  -76.6086 C.3       11 UNK        -0.0857 
     47 S47       -76.2886   30.6017  -76.4112 S.3       11 UNK        -0.2512 
     48 C48       -77.1441   31.4289  -75.0275 C.3       11 UNK         0.0225 
     49 N         -77.3545   26.8411  -75.4397 N.am      5 UNK        -0.4615 
     50 C         -76.9772   25.7196  -74.8070 C.2       4 UNK         0.5053 
     51 O         -75.8039   25.3891  -74.6464 O.2       4 UNK        -0.5105 
     52 CA        -78.0851   24.7555  -74.3463 C.3       4 UNK         0.0263 
     53 CB        -78.3978   24.9824  -72.8586 C.3       4 UNK        -0.1981 
     54 N         -79.3249   24.7968  -75.1397 N.am      4 UNK        -0.4224 
     55 C         -79.3983   24.6115  -76.4710 C.2       3 UNK         0.4895 
     56 O         -78.4045   24.4608  -77.1833 O.2       3 UNK        -0.5091 
     57 CA        -80.7906   24.5935  -77.1290 C.3       3 UNK         0.0250 
     58 CB        -80.8459   23.6744  -78.3666 C.3       3 UNK        -0.1996 
     59 N         -81.8347   24.2121  -76.1801 N.am      3 UNK        -0.4254 
     60 C         -83.1104   24.6112  -76.2191 C.2       2 UNK         0.5004 
     61 O         -83.5777   25.3405  -77.0944 O.2       2 UNK        -0.5226 
     62 CA        -84.0190   24.1328  -75.0713 C.3       2 UNK         0.0269 
     63 CB        -83.9582   22.6038  -74.8628 C.3       2 UNK        -0.1926 
     64 N         -83.7769   24.8637  -73.8189 N.am      2 UNK        -0.4687 
     65 C         -82.6468   24.9017  -73.0969 C.2       1 UNK         0.5165 
     66 O         -81.6379   24.2432  -73.3678 O.2       1 UNK        -0.5079 
     67 H67       -79.4929   25.0356  -69.5635 H         1 UNK         0.0900 
     68 H68       -79.8833   23.3158  -69.5183 H         1 UNK         0.0900 
     69 H69       -80.4720   24.3889  -68.2449 H         1 UNK         0.0900 
     70 H70       -80.6983   26.1044  -71.1126 H         1 UNK         0.2959 
     71 H71       -83.5737   25.7534  -71.3722 H         1 UNK         0.1079 
     72 H72       -83.3796   27.5864  -73.0620 H         1 UNK         0.0837 
     73 H73       -82.7056   28.0222  -71.5285 H         1 UNK         0.0837 
     74 H74       -80.8037   29.7281  -71.7852 H         1 UNK         0.0685 
     75 H75       -80.1803   28.2928  -71.0043 H         1 UNK         0.0685 
     76 H76       -79.4768   30.4799  -73.9797 H         1 UNK         0.1434 
     77 H77       -75.2284   30.3597  -73.3954 H         1 UNK         0.1329 
     78 H78       -77.8121   28.0796  -70.8424 H         1 UNK         0.1335 
     79 H79       -75.4556   28.2569  -70.3067 H         1 UNK         0.0680 
     80 H80       -74.4991   29.4880  -71.0935 H         1 UNK         0.0680 
     81 H81       -72.0709   26.6437  -72.0209 H         1 UNK         0.1032 
     82 H82       -72.5701   27.5598  -70.6233 H         1 UNK         0.1032 
     83 H83       -72.3555   29.6678  -71.8176 H         1 UNK         0.0461 
     84 H84       -68.4920   29.0665  -72.5171 H         1 UNK         0.3453 
     85 H85       -69.6893   29.0810  -73.7912 H         1 UNK         0.3453 
     86 H86       -72.0057   28.0678  -74.2752 H         1 UNK         0.2984 
     87 H87       -73.4800   29.9155  -76.1356 H         1 UNK         0.0554 
     88 H88       -72.0662   31.2630  -77.7044 H         1 UNK         0.0847 
     89 H89       -70.9028   31.5430  -76.4082 H         1 UNK         0.0847 
     90 H90       -72.5363   32.1790  -76.2847 H         1 UNK         0.0847 
     91 H91       -72.4100   28.2166  -77.0055 H         1 UNK         0.3141 
     92 H92       -70.0392   27.3641  -78.1818 H         1 UNK         0.0743 
     93 H93       -68.5813   26.5678  -75.6051 H         1 UNK         0.0784 
     94 H94       -68.3519   25.8109  -77.1812 H         1 UNK         0.0784 
     95 H95       -67.8965   27.4882  -76.9380 H         1 UNK         0.0784 
     96 H96       -71.3325   25.6017  -77.7164 H         1 UNK         0.3213 
     97 H97       -71.8794   23.6231  -76.2830 H         1 UNK         0.0855 
     98 H98       -73.3773   24.6799  -73.8283 H         1 UNK         0.0814 
     99 H99       -71.9746   23.6236  -73.8152 H         1 UNK         0.0814 
    100 H100      -73.4989   23.0417  -74.4685 H         1 UNK         0.0814 
    101 H101      -74.4644   24.9739  -76.0427 H         1 UNK         0.3105 
    102 H102      -74.7257   25.8976  -79.4200 H         1 UNK         0.0547 
    103 H103      -75.1999   23.4830  -79.8122 H         1 UNK         0.0837 
    104 H104      -76.0967   23.3931  -78.3024 H         1 UNK         0.0837 
    105 H105      -76.6956   24.3858  -79.6299 H         1 UNK         0.0837 
    106 H106      -76.7377   25.6397  -77.4215 H         1 UNK         0.3020 
    107 H107      -75.8063   28.1602  -75.2338 H         1 UNK         0.1245 
    108 H108      -78.1884   29.1628  -76.1026 H         1 UNK         0.0781 
    109 H109      -77.4814   28.9178  -77.6629 H         1 UNK         0.0781 
    110 H110      -78.1056   31.8022  -75.3834 H         1 UNK         0.0836 
    111 H111      -76.5681   32.3060  -74.7291 H         1 UNK         0.0836 
    112 H112      -78.3431   27.0225  -75.5265 H         1 UNK         0.3022 
    113 H113      -77.6834   23.7456  -74.4510 H         1 UNK         0.0747 
    114 H114      -79.0974   24.2382  -72.4788 H         1 UNK         0.0793 
    115 H115      -77.4915   24.9096  -72.2554 H         1 UNK         0.0793 
    116 H116      -78.8206   25.9702  -72.6834 H         1 UNK         0.0793 
    117 H117      -80.1834   24.8968  -74.6076 H         1 UNK         0.3047 
    118 H118      -80.9751   25.6189  -77.4563 H         1 UNK         0.0822 
    119 H119      -81.8236   23.7110  -78.8473 H         1 UNK         0.0807 
    120 H120      -80.6407   22.6365  -78.1024 H         1 UNK         0.0807 
    121 H121      -80.1115   23.9738  -79.1155 H         1 UNK         0.0807 
    122 H122      -81.5415   23.6718  -75.3734 H         1 UNK         0.2946 
    123 H123      -85.0408   24.3731  -75.3712 H         1 UNK         0.1144 
    124 H124      -84.1622   22.0767  -75.7958 H         1 UNK         0.0793 
    125 H125      -84.7058   22.2781  -74.1395 H         1 UNK         0.0793 
    126 H126      -82.9860   22.2644  -74.5056 H         1 UNK         0.0793 
    127 H127      -84.5382   25.4626  -73.5288 H         1 UNK         0.2896 
@<TRIPOS>BOND
     1    1    2 1    
     2    1   67 1    
     3    1   68 1    
     4    1   69 1    
     5    2    3 2    
     6    2    4 am   BACKBONE|DICT|INTERRES
     7    4    5 1    
     8    4   70 1    
     9    5    6 1    
    10    5   65 1    
    11    5   71 1    
    12    6    7 1    
    13    6   72 1    
    14    6   73 1    
    15    7    8 1    
    16    8    9 1    
    17    8   74 1    
    18    8   75 1    
    19    9   10 ar   
    20    9   14 ar   
    21   10   11 ar   
    22   10   76 1    
    23   11   12 ar   
    24   11   48 1    
    25   12   13 ar   
    26   12   77 1    
    27   13   14 ar   
    28   13   15 1    
    29   14   78 1    
    30   15   16 1    
    31   15   79 1    
    32   15   80 1    
    33   16   17 1    
    34   17   18 1    
    35   17   81 1    
    36   17   82 1    
    37   18   19 1    
    38   18   22 1    
    39   18   83 1    
    40   19   20 am   BACKBONE|DICT|INTERRES
    41   19   21 2    
    42   20   84 1    
    43   20   85 1    
    44   22   23 am   BACKBONE|DICT|INTERRES
    45   22   86 1    
    46   23   24 2    
    47   23   25 1    
    48   25   26 1    
    49   25   27 1    
    50   25   87 1    
    51   26   88 1    
    52   26   89 1    
    53   26   90 1    
    54   27   28 am   BACKBONE|DICT|INTERRES
    55   27   91 1    
    56   28   29 2    
    57   28   30 1    
    58   30   31 1    
    59   30   32 1    
    60   30   92 1    
    61   31   93 1    
    62   31   94 1    
    63   31   95 1    
    64   32   33 am   BACKBONE|DICT|INTERRES
    65   32   96 1    
    66   33   34 2    
    67   33   35 1    
    68   35   36 1    
    69   35   37 1    
    70   35   97 1    
    71   36   98 1    
    72   36   99 1    
    73   36  100 1    
    74   37   38 am   BACKBONE|DICT|INTERRES
    75   37  101 1    
    76   38   39 2    
    77   38   40 1    
    78   40   41 1    
    79   40   42 1    
    80   40  102 1    
    81   41  103 1    
    82   41  104 1    
    83   41  105 1    
    84   42   43 am   BACKBONE|DICT|INTERRES
    85   42  106 1    
    86   43   44 2    
    87   43   45 1    
    88   45   46 1    
    89   45   49 1    
    90   45  107 1    
    91   46   47 1    
    92   46  108 1    
    93   46  109 1    
    94   47   48 1    
    95   48  110 1    
    96   48  111 1    
    97   49   50 am   BACKBONE|DICT|INTERRES
    98   49  112 1    
    99   50   51 2    
   100   50   52 1    
   101   52   53 1    
   102   52   54 1    
   103   52  113 1    
   104   53  114 1    
   105   53  115 1    
   106   53  116 1    
   107   54   55 am   BACKBONE|DICT|INTERRES
   108   54  117 1    
   109   55   56 2    
   110   55   57 1    
   111   57   58 1    
   112   57   59 1    
   113   57  118 1    
   114   58  119 1    
   115   58  120 1    
   116   58  121 1    
   117   59   60 am   BACKBONE|DICT|INTERRES
   118   59  122 1    
   119   60   61 2    
   120   60   62 1    
   121   62   63 1    
   122   62   64 1    
   123   62  123 1    
   124   63  124 1    
   125   63  125 1    
   126   63  126 1    
   127   64   65 am   BACKBONE|DICT|INTERRES
   128   64  127 1    
   129   65   66 2    
@<TRIPOS>SUBSTRUCTURE
     1 UNK         1 GROUP             0       ****    0 ROOT    
