@<TRIPOS>MOLECULE
3R135
127   129    1
SMALL
USER_CHARGES


@<TRIPOS>ATOM
      1 CA        -80.6710   24.9262  -72.7293 C.3       0 UNK        -0.1998 
      2 C         -81.2099   25.9193  -73.7466 C.2       0 UNK         0.4909 
      3 O         -82.1389   25.5971  -74.4884 O.2       0 UNK        -0.5240 
      4 N         -80.6293   27.1251  -73.7984 N.am      1 UNK        -0.4739 
      5 CA        -80.9415   28.1685  -74.7816 C.3       1 UNK         0.0864 
      6 C6        -80.2499   29.5203  -74.4547 C.3       11 UNK        -0.0881 
      7 S7        -78.4737   29.3737  -74.0396 S.3       11 UNK        -0.2682 
      8 C8        -78.4993   29.6770  -72.2476 C.3       11 UNK         0.0289 
      9 C9        -77.3364   28.9808  -71.5611 C.ar      11 UNK        -0.0687 
     10 C10       -77.5356   27.7561  -70.9188 C.ar      11 UNK        -0.0823 
     11 C11       -76.4805   27.1146  -70.2631 C.ar      11 UNK        -0.0830 
     12 C12       -75.2150   27.7097  -70.2533 C.ar      11 UNK        -0.1021 
     13 C13       -75.0080   28.9420  -70.8809 C.ar      11 UNK        -0.0753 
     14 C14       -76.0699   29.5697  -71.5398 C.ar      11 UNK        -0.0933 
     15 C15       -73.6568   29.6307  -70.7962 C.3       11 UNK         0.0166 
     16 S16       -72.5313   29.1015  -72.1248 S.3       11 UNK        -0.2615 
     17 C17       -71.5120   30.6155  -72.2941 C.3       11 UNK        -0.0865 
     18 CA        -71.8009   31.4387  -73.5851 C.3       10 UNK         0.0862 
     19 C         -70.8541   31.0445  -74.7590 C.2       10 UNK         0.5551 
     20 N         -71.3440   30.6422  -75.9243 N.am      10 UNK        -0.7319 
     21 O         -69.6371   31.1264  -74.6119 O.2       10 UNK        -0.5018 
     22 N         -73.2356   31.4493  -73.9103 N.am      10 UNK        -0.4509 
     23 C         -73.8768   32.3474  -74.6646 C.2       10 UNK         0.4899 
     24 O         -73.3586   33.3841  -75.0815 O.2       10 UNK        -0.4839 
     25 CA        -75.3440   32.0090  -75.0188 C.3       9 UNK         0.0222 
     26 CB        -75.8463   32.7858  -76.2532 C.3       9 UNK        -0.1966 
     27 N         -75.6033   30.5684  -75.1879 N.am      9 UNK        -0.4218 
     28 C         -74.9552   29.7275  -76.0060 C.2       9 UNK         0.5020 
     29 O         -74.0232   30.0597  -76.7439 O.2       9 UNK        -0.5274 
     30 CA        -75.4054   28.2643  -76.0003 C.3       8 UNK         0.0270 
     31 CB        -76.3996   28.0071  -77.1433 C.3       8 UNK        -0.1976 
     32 N         -74.2072   27.4581  -76.1999 N.am      8 UNK        -0.4313 
     33 C         -73.8689   26.3699  -75.5069 C.2       8 UNK         0.5041 
     34 O         -74.6151   25.7951  -74.7028 O.2       8 UNK        -0.5577 
     35 CA        -72.4402   25.8457  -75.7487 C.3       7 UNK         0.0284 
     36 CB        -71.3926   26.8338  -75.2109 C.3       7 UNK        -0.1958 
     37 N         -72.2863   24.5789  -75.0461 N.am      7 UNK        -0.4454 
     38 C         -72.4916   23.3758  -75.5907 C.2       7 UNK         0.5089 
     39 O         -72.4722   23.1365  -76.7969 O.2       7 UNK        -0.5125 
     40 CA        -72.9368   22.3007  -74.5988 C.3       6 UNK         0.0408 
     41 CB        -71.8117   21.9178  -73.6183 C.3       6 UNK        -0.1791 
     42 N         -74.1020   22.8569  -73.9142 N.am      6 UNK        -0.4762 
     43 C         -74.9441   22.2394  -73.0810 C.2       6 UNK         0.5007 
     44 O         -74.8079   21.0791  -72.6933 O.2       6 UNK        -0.5032 
     45 CA        -76.1693   23.0608  -72.6401 C.3       5 UNK         0.0783 
     46 C46       -75.8441   23.9182  -71.3956 C.3       11 UNK        -0.0857 
     47 S47       -77.3708   24.4970  -70.5939 S.3       11 UNK        -0.2512 
     48 C48       -76.7295   25.8128  -69.5136 C.3       11 UNK         0.0225 
     49 N         -76.6426   23.8753  -73.7684 N.am      5 UNK        -0.4615 
     50 C         -77.5690   23.4664  -74.6415 C.2       4 UNK         0.5053 
     51 O         -78.2505   22.4529  -74.4793 O.2       4 UNK        -0.5105 
     52 CA        -77.7135   24.3262  -75.9106 C.3       4 UNK         0.0263 
     53 CB        -76.6386   23.9544  -76.9540 C.3       4 UNK        -0.1981 
     54 N         -79.0591   24.3001  -76.5009 N.am      4 UNK        -0.4224 
     55 C         -79.7066   23.2860  -77.1019 C.2       3 UNK         0.4895 
     56 O         -79.2148   22.1797  -77.3292 O.2       3 UNK        -0.5091 
     57 CA        -81.1633   23.5368  -77.5414 C.3       3 UNK         0.0250 
     58 CB        -82.1411   22.8236  -76.5925 C.3       3 UNK        -0.1996 
     59 N         -81.5097   24.9593  -77.6138 N.am      3 UNK        -0.4254 
     60 C         -81.1836   25.7605  -78.6401 C.2       2 UNK         0.5004 
     61 O         -80.6422   25.3590  -79.6708 O.2       2 UNK        -0.5226 
     62 CA        -81.4903   27.2663  -78.4995 C.3       2 UNK         0.0269 
     63 CB        -82.7786   27.6255  -79.2581 C.3       2 UNK        -0.1926 
     64 N         -81.5978   27.7457  -77.1153 N.am      2 UNK        -0.4687 
     65 C         -80.6155   27.6766  -76.2061 C.2       1 UNK         0.5165 
     66 O         -79.5075   27.1946  -76.4429 O.2       1 UNK        -0.5079 
     67 H67       -79.8096   25.3231  -72.1907 H         1 UNK         0.0900 
     68 H68       -80.3630   24.0071  -73.2293 H         1 UNK         0.0900 
     69 H69       -81.4440   24.6771  -72.0018 H         1 UNK         0.0900 
     70 H70       -79.8323   27.3250  -73.2118 H         1 UNK         0.2959 
     71 H71       -82.0198   28.3357  -74.7300 H         1 UNK         0.1079 
     72 H72       -80.3518   30.2180  -75.2884 H         1 UNK         0.0837 
     73 H73       -80.7720   29.9985  -73.6248 H         1 UNK         0.0837 
     74 H74       -79.4404   29.3261  -71.8213 H         1 UNK         0.0685 
     75 H75       -78.4597   30.7514  -72.0619 H         1 UNK         0.0685 
     76 H76       -78.5170   27.3027  -70.9153 H         1 UNK         0.1434 
     77 H77       -74.3957   27.2306  -69.7348 H         1 UNK         0.1329 
     78 H78       -75.9175   30.5274  -72.0177 H         1 UNK         0.1335 
     79 H79       -73.1898   29.4299  -69.8307 H         1 UNK         0.0680 
     80 H80       -73.8082   30.7103  -70.8411 H         1 UNK         0.0680 
     81 H81       -71.6726   31.2552  -71.4259 H         1 UNK         0.1032 
     82 H82       -70.4605   30.3311  -72.2237 H         1 UNK         0.1032 
     83 H83       -71.5293   32.4717  -73.3596 H         1 UNK         0.0461 
     84 H84       -70.7039   30.4135  -76.6668 H         1 UNK         0.3453 
     85 H85       -72.3445   30.5743  -76.0871 H         1 UNK         0.3453 
     86 H86       -73.7329   30.6176  -73.6270 H         1 UNK         0.2984 
     87 H87       -75.9418   32.3265  -74.1634 H         1 UNK         0.0554 
     88 H88       -76.8899   32.5567  -76.4684 H         1 UNK         0.0847 
     89 H89       -75.2607   32.5500  -77.1425 H         1 UNK         0.0847 
     90 H90       -75.7793   33.8627  -76.0952 H         1 UNK         0.0847 
     91 H91       -76.3748   30.1956  -74.6459 H         1 UNK         0.3141 
     92 H92       -75.8706   28.0292  -75.0402 H         1 UNK         0.0743 
     93 H93       -75.9687   28.2436  -78.1168 H         1 UNK         0.0784 
     94 H94       -76.7209   26.9674  -77.1648 H         1 UNK         0.0784 
     95 H95       -77.2941   28.6194  -77.0241 H         1 UNK         0.0784 
     96 H96       -73.5194   27.9019  -76.7957 H         1 UNK         0.3213 
     97 H97       -72.2918   25.7085  -76.8209 H         1 UNK         0.0855 
     98 H98       -71.5399   27.0420  -74.1522 H         1 UNK         0.0814 
     99 H99       -71.4371   27.7853  -75.7380 H         1 UNK         0.0814 
    100 H100      -70.3818   26.4455  -75.3360 H         1 UNK         0.0814 
    101 H101      -72.3568   24.6446  -74.0413 H         1 UNK         0.3105 
    102 H102      -73.2463   21.4168  -75.1581 H         1 UNK         0.0547 
    103 H103      -71.5273   22.7489  -72.9742 H         1 UNK         0.0837 
    104 H104      -72.1078   21.0887  -72.9774 H         1 UNK         0.0837 
    105 H105      -70.9182   21.6012  -74.1575 H         1 UNK         0.0837 
    106 H106      -74.3321   23.8073  -74.1915 H         1 UNK         0.3020 
    107 H107      -76.9368   22.3361  -72.3574 H         1 UNK         0.1245 
    108 H108      -75.2195   24.7731  -71.6629 H         1 UNK         0.0781 
    109 H109      -75.2858   23.3419  -70.6547 H         1 UNK         0.0781 
    110 H110      -75.8247   25.4631  -69.0149 H         1 UNK         0.0836 
    111 H111      -77.4582   26.0009  -68.7247 H         1 UNK         0.0836 
    112 H112      -76.1075   24.7150  -73.9762 H         1 UNK         0.3022 
    113 H113      -77.5494   25.3633  -75.6131 H         1 UNK         0.0747 
    114 H114      -76.7280   24.5652  -77.8520 H         1 UNK         0.0793 
    115 H115      -75.6352   24.1071  -76.5577 H         1 UNK         0.0793 
    116 H116      -76.7036   22.9079  -77.2523 H         1 UNK         0.0793 
    117 H117      -79.5489   25.1857  -76.4276 H         1 UNK         0.3047 
    118 H118      -81.2832   23.0982  -78.5346 H         1 UNK         0.0822 
    119 H119      -81.9585   21.7481  -76.5839 H         1 UNK         0.0807 
    120 H120      -83.1764   22.9734  -76.8994 H         1 UNK         0.0807 
    121 H121      -82.0390   23.1755  -75.5658 H         1 UNK         0.0807 
    122 H122      -81.9453   25.3640  -76.7936 H         1 UNK         0.2946 
    123 H123      -80.6581   27.7995  -78.9653 H         1 UNK         0.1144 
    124 H124      -82.7197   27.3086  -80.3006 H         1 UNK         0.0793 
    125 H125      -82.9529   28.7017  -79.2597 H         1 UNK         0.0793 
    126 H126      -83.6530   27.1423  -78.8200 H         1 UNK         0.0793 
    127 H127      -82.4914   28.1300  -76.8425 H         1 UNK         0.2896 
@<TRIPOS>BOND
     1    1    2 1    
     2    1   67 1    
     3    1   68 1    
     4    1   69 1    
     5    2    3 2    
     6    2    4 am   BACKBONE|DICT|INTERRES
     7    4    5 1    
     8    4   70 1    
     9    5    6 1    
    10    5   65 1    
    11    5   71 1    
    12    6    7 1    
    13    6   72 1    
    14    6   73 1    
    15    7    8 1    
    16    8    9 1    
    17    8   74 1    
    18    8   75 1    
    19    9   10 ar   
    20    9   14 ar   
    21   10   11 ar   
    22   10   76 1    
    23   11   12 ar   
    24   11   48 1    
    25   12   13 ar   
    26   12   77 1    
    27   13   14 ar   
    28   13   15 1    
    29   14   78 1    
    30   15   16 1    
    31   15   79 1    
    32   15   80 1    
    33   16   17 1    
    34   17   18 1    
    35   17   81 1    
    36   17   82 1    
    37   18   19 1    
    38   18   22 1    
    39   18   83 1    
    40   19   20 am   BACKBONE|DICT|INTERRES
    41   19   21 2    
    42   20   84 1    
    43   20   85 1    
    44   22   23 am   BACKBONE|DICT|INTERRES
    45   22   86 1    
    46   23   24 2    
    47   23   25 1    
    48   25   26 1    
    49   25   27 1    
    50   25   87 1    
    51   26   88 1    
    52   26   89 1    
    53   26   90 1    
    54   27   28 am   BACKBONE|DICT|INTERRES
    55   27   91 1    
    56   28   29 2    
    57   28   30 1    
    58   30   31 1    
    59   30   32 1    
    60   30   92 1    
    61   31   93 1    
    62   31   94 1    
    63   31   95 1    
    64   32   33 am   BACKBONE|DICT|INTERRES
    65   32   96 1    
    66   33   34 2    
    67   33   35 1    
    68   35   36 1    
    69   35   37 1    
    70   35   97 1    
    71   36   98 1    
    72   36   99 1    
    73   36  100 1    
    74   37   38 am   BACKBONE|DICT|INTERRES
    75   37  101 1    
    76   38   39 2    
    77   38   40 1    
    78   40   41 1    
    79   40   42 1    
    80   40  102 1    
    81   41  103 1    
    82   41  104 1    
    83   41  105 1    
    84   42   43 am   BACKBONE|DICT|INTERRES
    85   42  106 1    
    86   43   44 2    
    87   43   45 1    
    88   45   46 1    
    89   45   49 1    
    90   45  107 1    
    91   46   47 1    
    92   46  108 1    
    93   46  109 1    
    94   47   48 1    
    95   48  110 1    
    96   48  111 1    
    97   49   50 am   BACKBONE|DICT|INTERRES
    98   49  112 1    
    99   50   51 2    
   100   50   52 1    
   101   52   53 1    
   102   52   54 1    
   103   52  113 1    
   104   53  114 1    
   105   53  115 1    
   106   53  116 1    
   107   54   55 am   BACKBONE|DICT|INTERRES
   108   54  117 1    
   109   55   56 2    
   110   55   57 1    
   111   57   58 1    
   112   57   59 1    
   113   57  118 1    
   114   58  119 1    
   115   58  120 1    
   116   58  121 1    
   117   59   60 am   BACKBONE|DICT|INTERRES
   118   59  122 1    
   119   60   61 2    
   120   60   62 1    
   121   62   63 1    
   122   62   64 1    
   123   62  123 1    
   124   63  124 1    
   125   63  125 1    
   126   63  126 1    
   127   64   65 am   BACKBONE|DICT|INTERRES
   128   64  127 1    
   129   65   66 2    
@<TRIPOS>SUBSTRUCTURE
     1 UNK         1 GROUP             0       ****    0 ROOT    
