@<TRIPOS>MOLECULE
3R135
127   129    1
SMALL
USER_CHARGES


@<TRIPOS>ATOM
      1 CA        -82.3572   25.1178  -70.9113 C.3       0 UNK        -0.1998 
      2 C         -81.2370   26.1072  -71.2183 C.2       0 UNK         0.4909 
      3 O         -80.1771   26.0329  -70.6015 O.2       0 UNK        -0.5240 
      4 N         -81.4132   27.0520  -72.1524 N.am      1 UNK        -0.4739 
      5 CA        -82.5768   27.2513  -73.0279 C.3       1 UNK         0.0864 
      6 C6        -82.6254   28.6984  -73.5875 C.3       11 UNK        -0.0881 
      7 S7        -81.0483   29.2684  -74.3225 S.3       11 UNK        -0.2682 
      8 C8        -80.4110   30.3877  -73.0342 C.3       11 UNK         0.0289 
      9 C9        -78.9374   30.1343  -72.7540 C.ar      11 UNK        -0.0687 
     10 C10       -78.5600   29.1907  -71.7932 C.ar      11 UNK        -0.0823 
     11 C11       -77.2119   28.9716  -71.4995 C.ar      11 UNK        -0.0830 
     12 C12       -76.2375   29.7233  -72.1619 C.ar      11 UNK        -0.1021 
     13 C13       -76.5996   30.6702  -73.1250 C.ar      11 UNK        -0.0753 
     14 C14       -77.9516   30.8654  -73.4251 C.ar      11 UNK        -0.0933 
     15 C15       -75.5212   31.4851  -73.8212 C.3       11 UNK         0.0166 
     16 S16       -74.6481   30.4659  -75.0441 S.3       11 UNK        -0.2615 
     17 C17       -72.9711   31.1846  -75.0553 C.3       11 UNK        -0.0865 
     18 CA        -71.9861   30.5128  -74.0568 C.3       10 UNK         0.0862 
     19 C         -72.1299   31.0893  -72.6156 C.2       10 UNK         0.5551 
     20 N         -72.4537   30.2924  -71.6041 N.am      10 UNK        -0.7319 
     21 O         -71.9345   32.2852  -72.4135 O.2       10 UNK        -0.5018 
     22 N         -72.0136   29.0413  -74.1492 N.am      10 UNK        -0.4509 
     23 C         -71.0394   28.2354  -73.7048 C.2       10 UNK         0.4899 
     24 O         -69.9630   28.6391  -73.2640 O.2       10 UNK        -0.4839 
     25 CA        -71.3099   26.7266  -73.7392 C.3       9 UNK         0.0222 
     26 CB        -72.1574   26.3100  -72.5268 C.3       9 UNK        -0.1966 
     27 N         -71.9880   26.3275  -74.9737 N.am      9 UNK        -0.4218 
     28 C         -71.3714   25.7501  -76.0139 C.2       9 UNK         0.5020 
     29 O         -70.1661   25.4955  -76.0473 O.2       9 UNK        -0.5274 
     30 CA        -72.2424   25.3745  -77.2230 C.3       8 UNK         0.0270 
     31 CB        -73.0309   24.0859  -76.9398 C.3       8 UNK        -0.1976 
     32 N         -73.1692   26.4297  -77.6291 N.am      8 UNK        -0.4313 
     33 C         -72.8310   27.6337  -78.1061 C.2       8 UNK         0.5041 
     34 O         -71.6667   28.0023  -78.2638 O.2       8 UNK        -0.5577 
     35 CA        -73.9729   28.6014  -78.4750 C.3       7 UNK         0.0284 
     36 CB        -74.3822   28.4417  -79.9522 C.3       7 UNK        -0.1958 
     37 N         -75.1372   28.5416  -77.5794 N.am      7 UNK        -0.4454 
     38 C         -76.0124   27.5466  -77.3939 C.2       7 UNK         0.5089 
     39 O         -76.0045   26.4881  -78.0243 O.2       7 UNK        -0.5125 
     40 CA        -77.0308   27.7466  -76.2630 C.3       6 UNK         0.0408 
     41 CB        -78.4615   27.7745  -76.8210 C.3       6 UNK        -0.1791 
     42 N         -76.9204   26.6997  -75.2462 N.am      6 UNK        -0.4762 
     43 C         -75.8284   26.4311  -74.5117 C.2       6 UNK         0.5007 
     44 O         -74.7455   27.0060  -74.6483 O.2       6 UNK        -0.5032 
     45 CA        -75.9502   25.3008  -73.4754 C.3       5 UNK         0.0783 
     46 C46       -76.7338   25.7411  -72.2120 C.3       11 UNK        -0.0857 
     47 S47       -75.6807   26.6732  -71.0505 S.3       11 UNK        -0.2512 
     48 C48       -76.8180   27.9561  -70.4336 C.3       11 UNK         0.0225 
     49 N         -76.5451   24.1164  -74.0957 N.am      5 UNK        -0.4615 
     50 C         -75.9528   22.9173  -74.1857 C.2       4 UNK         0.5053 
     51 O         -74.8442   22.6632  -73.7147 O.2       4 UNK        -0.5105 
     52 CA        -76.7183   21.8001  -74.9230 C.3       4 UNK         0.0263 
     53 CB        -77.4499   20.8980  -73.9160 C.3       4 UNK        -0.1981 
     54 N         -77.6848   22.3119  -75.8958 N.am      4 UNK        -0.4224 
     55 C         -77.3621   22.9542  -77.0266 C.2       3 UNK         0.4895 
     56 O         -76.2118   23.0283  -77.4563 O.2       3 UNK        -0.5091 
     57 CA        -78.4990   23.6450  -77.8068 C.3       3 UNK         0.0250 
     58 CB        -78.7444   22.9272  -79.1447 C.3       3 UNK        -0.1996 
     59 N         -79.7816   23.7747  -77.0972 N.am      3 UNK        -0.4254 
     60 C         -79.9930   24.4177  -75.9404 C.2       2 UNK         0.5004 
     61 O         -79.0984   24.9220  -75.2540 O.2       2 UNK        -0.5226 
     62 CA        -81.4399   24.4558  -75.4422 C.3       2 UNK         0.0269 
     63 CB        -81.8427   23.1066  -74.8187 C.3       2 UNK        -0.1926 
     64 N         -81.5586   25.5091  -74.4408 N.am      2 UNK        -0.4687 
     65 C         -82.6685   26.1986  -74.1550 C.2       1 UNK         0.5165 
     66 O         -83.7468   26.0139  -74.7208 O.2       1 UNK        -0.5079 
     67 H67       -83.2750   25.6355  -70.6354 H         1 UNK         0.0900 
     68 H68       -82.0783   24.4775  -70.0747 H         1 UNK         0.0900 
     69 H69       -82.5558   24.4735  -71.7669 H         1 UNK         0.0900 
     70 H70       -80.6478   27.6791  -72.3518 H         1 UNK         0.2959 
     71 H71       -83.4788   27.1195  -72.4276 H         1 UNK         0.1079 
     72 H72       -83.4094   28.7960  -74.3414 H         1 UNK         0.0837 
     73 H73       -82.9230   29.3824  -72.7918 H         1 UNK         0.0837 
     74 H74       -80.5649   31.4194  -73.3540 H         1 UNK         0.0685 
     75 H75       -80.9736   30.2732  -72.1068 H         1 UNK         0.0685 
     76 H76       -79.3161   28.6373  -71.2554 H         1 UNK         0.1434 
     77 H77       -75.1928   29.5676  -71.9318 H         1 UNK         0.1329 
     78 H78       -78.2383   31.5969  -74.1682 H         1 UNK         0.1335 
     79 H79       -75.9472   32.3572  -74.3194 H         1 UNK         0.0680 
     80 H80       -74.8271   31.8668  -73.0728 H         1 UNK         0.0680 
     81 H81       -73.0274   32.2645  -74.9040 H         1 UNK         0.1032 
     82 H82       -72.5802   31.0603  -76.0662 H         1 UNK         0.1032 
     83 H83       -70.9864   30.8191  -74.3713 H         1 UNK         0.0461 
     84 H84       -72.5334   30.6795  -70.6774 H         1 UNK         0.3453 
     85 H85       -72.6024   29.3095  -71.7580 H         1 UNK         0.3453 
     86 H86       -72.8868   28.6403  -74.4651 H         1 UNK         0.2984 
     87 H87       -70.3490   26.2145  -73.6550 H         1 UNK         0.0554 
     88 H88       -73.1158   26.8276  -72.5066 H         1 UNK         0.0847 
     89 H89       -71.6436   26.5427  -71.5931 H         1 UNK         0.0847 
     90 H90       -72.3548   25.2379  -72.5288 H         1 UNK         0.0847 
     91 H91       -72.9861   26.5204  -75.0305 H         1 UNK         0.3141 
     92 H92       -71.5732   25.1848  -78.0648 H         1 UNK         0.0743 
     93 H93       -73.7709   24.2277  -76.1508 H         1 UNK         0.0784 
     94 H94       -73.5573   23.7415  -77.8302 H         1 UNK         0.0784 
     95 H95       -72.3675   23.2794  -76.6246 H         1 UNK         0.0784 
     96 H96       -74.1626   26.2157  -77.5916 H         1 UNK         0.3213 
     97 H97       -73.5699   29.6086  -78.3555 H         1 UNK         0.0855 
     98 H98       -73.5268   28.6019  -80.6099 H         1 UNK         0.0814 
     99 H99       -75.1468   29.1660  -80.2326 H         1 UNK         0.0814 
    100 H100      -74.7690   27.4449  -80.1653 H         1 UNK         0.0814 
    101 H101      -75.2005   29.3195  -76.9323 H         1 UNK         0.3105 
    102 H102      -76.8481   28.6996  -75.7649 H         1 UNK         0.0547 
    103 H103      -78.6037   28.6279  -77.4847 H         1 UNK         0.0837 
    104 H104      -78.6932   26.8758  -77.3919 H         1 UNK         0.0837 
    105 H105      -79.1961   27.8566  -76.0222 H         1 UNK         0.0837 
    106 H106      -77.7492   26.1233  -75.1229 H         1 UNK         0.3020 
    107 H107      -74.9290   25.0611  -73.1704 H         1 UNK         0.1245 
    108 H108      -77.0933   24.8646  -71.6705 H         1 UNK         0.0781 
    109 H109      -77.6277   26.3124  -72.4708 H         1 UNK         0.0781 
    110 H110      -76.3351   28.4843  -69.6105 H         1 UNK         0.0836 
    111 H111      -77.6983   27.4692  -70.0102 H         1 UNK         0.0836 
    112 H112      -77.4535   24.2484  -74.5306 H         1 UNK         0.3022 
    113 H113      -75.9835   21.1951  -75.4587 H         1 UNK         0.0747 
    114 H114      -77.9399   20.0615  -74.4145 H         1 UNK         0.0793 
    115 H115      -76.7514   20.4768  -73.1913 H         1 UNK         0.0793 
    116 H116      -78.2076   21.4481  -73.3562 H         1 UNK         0.0793 
    117 H117      -78.6573   22.2872  -75.6283 H         1 UNK         0.3047 
    118 H118      -78.1463   24.6544  -78.0256 H         1 UNK         0.0822 
    119 H119      -79.4606   23.4696  -79.7622 H         1 UNK         0.0807 
    120 H120      -79.1239   21.9156  -78.9957 H         1 UNK         0.0807 
    121 H121      -77.8217   22.8474  -79.7217 H         1 UNK         0.0807 
    122 H122      -80.5791   23.3675  -77.5652 H         1 UNK         0.2946 
    123 H123      -82.0899   24.6843  -76.2903 H         1 UNK         0.1144 
    124 H124      -81.7660   22.2952  -75.5434 H         1 UNK         0.0793 
    125 H125      -82.8747   23.1250  -74.4678 H         1 UNK         0.0793 
    126 H126      -81.2075   22.8501  -73.9697 H         1 UNK         0.0793 
    127 H127      -80.6896   25.7542  -73.9828 H         1 UNK         0.2896 
@<TRIPOS>BOND
     1    1    2 1    
     2    1   67 1    
     3    1   68 1    
     4    1   69 1    
     5    2    3 2    
     6    2    4 am   BACKBONE|DICT|INTERRES
     7    4    5 1    
     8    4   70 1    
     9    5    6 1    
    10    5   65 1    
    11    5   71 1    
    12    6    7 1    
    13    6   72 1    
    14    6   73 1    
    15    7    8 1    
    16    8    9 1    
    17    8   74 1    
    18    8   75 1    
    19    9   10 ar   
    20    9   14 ar   
    21   10   11 ar   
    22   10   76 1    
    23   11   12 ar   
    24   11   48 1    
    25   12   13 ar   
    26   12   77 1    
    27   13   14 ar   
    28   13   15 1    
    29   14   78 1    
    30   15   16 1    
    31   15   79 1    
    32   15   80 1    
    33   16   17 1    
    34   17   18 1    
    35   17   81 1    
    36   17   82 1    
    37   18   19 1    
    38   18   22 1    
    39   18   83 1    
    40   19   20 am   BACKBONE|DICT|INTERRES
    41   19   21 2    
    42   20   84 1    
    43   20   85 1    
    44   22   23 am   BACKBONE|DICT|INTERRES
    45   22   86 1    
    46   23   24 2    
    47   23   25 1    
    48   25   26 1    
    49   25   27 1    
    50   25   87 1    
    51   26   88 1    
    52   26   89 1    
    53   26   90 1    
    54   27   28 am   BACKBONE|DICT|INTERRES
    55   27   91 1    
    56   28   29 2    
    57   28   30 1    
    58   30   31 1    
    59   30   32 1    
    60   30   92 1    
    61   31   93 1    
    62   31   94 1    
    63   31   95 1    
    64   32   33 am   BACKBONE|DICT|INTERRES
    65   32   96 1    
    66   33   34 2    
    67   33   35 1    
    68   35   36 1    
    69   35   37 1    
    70   35   97 1    
    71   36   98 1    
    72   36   99 1    
    73   36  100 1    
    74   37   38 am   BACKBONE|DICT|INTERRES
    75   37  101 1    
    76   38   39 2    
    77   38   40 1    
    78   40   41 1    
    79   40   42 1    
    80   40  102 1    
    81   41  103 1    
    82   41  104 1    
    83   41  105 1    
    84   42   43 am   BACKBONE|DICT|INTERRES
    85   42  106 1    
    86   43   44 2    
    87   43   45 1    
    88   45   46 1    
    89   45   49 1    
    90   45  107 1    
    91   46   47 1    
    92   46  108 1    
    93   46  109 1    
    94   47   48 1    
    95   48  110 1    
    96   48  111 1    
    97   49   50 am   BACKBONE|DICT|INTERRES
    98   49  112 1    
    99   50   51 2    
   100   50   52 1    
   101   52   53 1    
   102   52   54 1    
   103   52  113 1    
   104   53  114 1    
   105   53  115 1    
   106   53  116 1    
   107   54   55 am   BACKBONE|DICT|INTERRES
   108   54  117 1    
   109   55   56 2    
   110   55   57 1    
   111   57   58 1    
   112   57   59 1    
   113   57  118 1    
   114   58  119 1    
   115   58  120 1    
   116   58  121 1    
   117   59   60 am   BACKBONE|DICT|INTERRES
   118   59  122 1    
   119   60   61 2    
   120   60   62 1    
   121   62   63 1    
   122   62   64 1    
   123   62  123 1    
   124   63  124 1    
   125   63  125 1    
   126   63  126 1    
   127   64   65 am   BACKBONE|DICT|INTERRES
   128   64  127 1    
   129   65   66 2    
@<TRIPOS>SUBSTRUCTURE
     1 UNK         1 GROUP             0       ****    0 ROOT    
