@<TRIPOS>MOLECULE
3R135
127   129    1
SMALL
USER_CHARGES


@<TRIPOS>ATOM
      1 CA        -81.7960   32.3282  -73.0352 C.3       0 UNK        -0.1998 
      2 C         -80.9403   31.0723  -72.9678 C.2       0 UNK         0.4909 
      3 O         -79.7444   31.1319  -73.2505 O.2       0 UNK        -0.5240 
      4 N         -81.5422   29.9382  -72.5859 N.am      1 UNK        -0.4739 
      5 CA        -80.8775   28.6312  -72.5126 C.3       1 UNK         0.0864 
      6 C6        -81.6162   27.6904  -71.5290 C.3       11 UNK        -0.0881 
      7 S7        -80.5576   26.3714  -70.8481 S.3       11 UNK        -0.2682 
      8 C8        -79.5938   27.2715  -69.5899 C.3       11 UNK         0.0289 
      9 C9        -78.1422   27.4319  -70.0183 C.ar      11 UNK        -0.0687 
     10 C10       -77.2632   26.3534  -69.8890 C.ar      11 UNK        -0.0823 
     11 C11       -75.9244   26.4775  -70.2678 C.ar      11 UNK        -0.0830 
     12 C12       -75.4640   27.6938  -70.7787 C.ar      11 UNK        -0.1021 
     13 C13       -76.3328   28.7812  -70.9185 C.ar      11 UNK        -0.0753 
     14 C14       -77.6690   28.6470  -70.5265 C.ar      11 UNK        -0.0933 
     15 C15       -75.8152   30.1150  -71.4422 C.3       11 UNK         0.0166 
     16 S16       -74.9886   29.9742  -73.0604 S.3       11 UNK        -0.2615 
     17 C17       -76.3910   29.9246  -74.2323 C.3       11 UNK        -0.0865 
     18 CA        -76.3787   28.6833  -75.1731 C.3       10 UNK         0.0862 
     19 C         -77.5460   28.6885  -76.2046 C.2       10 UNK         0.5551 
     20 N         -77.7175   27.6025  -76.9469 N.am      10 UNK        -0.7319 
     21 O         -78.2620   29.6730  -76.3748 O.2       10 UNK        -0.5018 
     22 N         -75.0819   28.4608  -75.8406 N.am      10 UNK        -0.4509 
     23 C         -74.5169   29.2644  -76.7561 C.2       10 UNK         0.4899 
     24 O         -74.9936   30.3396  -77.1241 O.2       10 UNK        -0.4839 
     25 CA        -73.1955   28.7675  -77.3717 C.3       9 UNK         0.0222 
     26 CB        -72.4714   29.8280  -78.2290 C.3       9 UNK        -0.1966 
     27 N         -72.3076   28.1893  -76.3620 N.am      9 UNK        -0.4218 
     28 C         -71.6957   28.8036  -75.3380 C.2       9 UNK         0.5020 
     29 O         -71.6861   30.0223  -75.1622 O.2       9 UNK        -0.5274 
     30 CA        -70.9802   27.8964  -74.3195 C.3       8 UNK         0.0270 
     31 CB        -71.8085   27.8015  -73.0262 C.3       8 UNK        -0.1976 
     32 N         -70.7554   26.5447  -74.8435 N.am      8 UNK        -0.4313 
     33 C         -69.6829   26.1726  -75.5568 C.2       8 UNK         0.5041 
     34 O         -68.7166   26.9048  -75.7728 O.2       8 UNK        -0.5577 
     35 CA        -69.6912   24.7475  -76.1427 C.3       7 UNK         0.0284 
     36 CB        -69.0629   23.7549  -75.1511 C.3       7 UNK        -0.1958 
     37 N         -71.0308   24.2811  -76.5154 N.am      7 UNK        -0.4454 
     38 C         -71.7605   24.7779  -77.5252 C.2       7 UNK         0.5089 
     39 O         -71.3578   25.6473  -78.2967 O.2       7 UNK        -0.5125 
     40 CA        -73.2031   24.2551  -77.6719 C.3       6 UNK         0.0408 
     41 CB        -73.2537   23.0952  -78.6783 C.3       6 UNK        -0.1791 
     42 N         -73.8282   23.8351  -76.4104 N.am      6 UNK        -0.4762 
     43 C         -74.0107   24.6240  -75.3412 C.2       6 UNK         0.5007 
     44 O         -73.6480   25.8022  -75.2987 O.2       6 UNK        -0.5032 
     45 CA        -74.7078   23.9776  -74.1261 C.3       5 UNK         0.0783 
     46 C46       -74.7226   24.9110  -72.8885 C.3       11 UNK        -0.0857 
     47 S47       -75.2839   24.0337  -71.3925 S.3       11 UNK        -0.2512 
     48 C48       -74.9796   25.2955  -70.1189 C.3       11 UNK         0.0225 
     49 N         -76.0451   23.4558  -74.4450 N.am      5 UNK        -0.4615 
     50 C         -77.0580   24.1252  -75.0116 C.2       4 UNK         0.5053 
     51 O         -76.9639   25.2485  -75.5114 O.2       4 UNK        -0.5105 
     52 CA        -78.4184   23.4197  -74.9884 C.3       4 UNK         0.0263 
     53 CB        -79.0657   23.5304  -73.5950 C.3       4 UNK        -0.1981 
     54 N         -79.2900   24.0382  -75.9815 N.am      4 UNK        -0.4224 
     55 C         -80.2884   23.4312  -76.6330 C.2       3 UNK         0.4895 
     56 O         -80.6072   22.2555  -76.4439 O.2       3 UNK        -0.5091 
     57 CA        -81.0399   24.2696  -77.6899 C.3       3 UNK         0.0250 
     58 CB        -82.4382   23.7046  -78.0235 C.3       3 UNK        -0.1996 
     59 N         -81.1141   25.7021  -77.3665 N.am      3 UNK        -0.4254 
     60 C         -81.7180   26.2640  -76.3081 C.2       2 UNK         0.5004 
     61 O         -82.3641   25.6430  -75.4603 O.2       2 UNK        -0.5226 
     62 CA        -81.6053   27.7967  -76.2123 C.3       2 UNK         0.0269 
     63 CB        -82.7522   28.4701  -76.9838 C.3       2 UNK        -0.1926 
     64 N         -81.6134   28.2832  -74.8314 N.am      2 UNK        -0.4687 
     65 C         -80.6847   27.9968  -73.9059 C.2       1 UNK         0.5165 
     66 O         -79.6954   27.2980  -74.1230 O.2       1 UNK        -0.5079 
     67 H67       -81.7949   32.7277  -74.0490 H         1 UNK         0.0900 
     68 H68       -82.8293   32.1350  -72.7476 H         1 UNK         0.0900 
     69 H69       -81.3953   33.0908  -72.3680 H         1 UNK         0.0900 
     70 H70       -82.5249   29.9523  -72.3507 H         1 UNK         0.2959 
     71 H71       -79.8743   28.8048  -72.1261 H         1 UNK         0.1079 
     72 H72       -82.4849   27.2314  -72.0056 H         1 UNK         0.0837 
     73 H73       -82.0146   28.2571  -70.6857 H         1 UNK         0.0837 
     74 H74       -79.6351   26.7137  -68.6531 H         1 UNK         0.0685 
     75 H75       -80.0423   28.2437  -69.3807 H         1 UNK         0.0685 
     76 H76       -77.6243   25.4110  -69.4997 H         1 UNK         0.1434 
     77 H77       -74.4280   27.7976  -71.0713 H         1 UNK         0.1329 
     78 H78       -78.3368   29.4933  -70.6086 H         1 UNK         0.1335 
     79 H79       -76.6162   30.8532  -71.5097 H         1 UNK         0.0680 
     80 H80       -75.0968   30.5095  -70.7225 H         1 UNK         0.0680 
     81 H81       -76.3684   30.8459  -74.8166 H         1 UNK         0.1032 
     82 H82       -77.3295   29.9481  -73.6756 H         1 UNK         0.1032 
     83 H83       -76.5427   27.8107  -74.5390 H         1 UNK         0.0461 
     84 H84       -78.4085   27.5989  -77.6759 H         1 UNK         0.3453 
     85 H85       -77.2057   26.7589  -76.7084 H         1 UNK         0.3453 
     86 H86       -74.6211   27.5862  -75.6140 H         1 UNK         0.2984 
     87 H87       -73.4644   27.9441  -78.0350 H         1 UNK         0.0554 
     88 H88       -73.0951   30.1418  -79.0668 H         1 UNK         0.0847 
     89 H89       -71.5439   29.4350  -78.6452 H         1 UNK         0.0847 
     90 H90       -72.2306   30.7225  -77.6541 H         1 UNK         0.0847 
     91 H91       -72.2769   27.1787  -76.3591 H         1 UNK         0.3141 
     92 H92       -70.0201   28.3569  -74.0770 H         1 UNK         0.0743 
     93 H93       -71.9087   28.7819  -72.5585 H         1 UNK         0.0784 
     94 H94       -72.8178   27.4371  -73.2200 H         1 UNK         0.0784 
     95 H95       -71.3414   27.1399  -72.2967 H         1 UNK         0.0784 
     96 H96       -71.5235   25.8940  -74.7427 H         1 UNK         0.3213 
     97 H97       -69.0773   24.7616  -77.0462 H         1 UNK         0.0855 
     98 H98       -68.9851   22.7570  -75.5831 H         1 UNK         0.0814 
     99 H99       -69.6417   23.6794  -74.2297 H         1 UNK         0.0814 
    100 H100      -68.0538   24.0657  -74.8765 H         1 UNK         0.0814 
    101 H101      -71.4390   23.5522  -75.9484 H         1 UNK         0.3105 
    102 H102      -73.8034   25.0757  -78.0707 H         1 UNK         0.0547 
    103 H103      -74.2796   22.7841  -78.8755 H         1 UNK         0.0837 
    104 H104      -72.7000   22.2256  -78.3222 H         1 UNK         0.0837 
    105 H105      -72.8182   23.3889  -79.6346 H         1 UNK         0.0837 
    106 H106      -74.1771   22.8875  -76.3726 H         1 UNK         0.3020 
    107 H107      -74.0937   23.1129  -73.8681 H         1 UNK         0.1245 
    108 H108      -75.3654   25.7763  -73.0637 H         1 UNK         0.0781 
    109 H109      -73.7227   25.2979  -72.6860 H         1 UNK         0.0781 
    110 H110      -75.1161   24.8451  -69.1347 H         1 UNK         0.0836 
    111 H111      -73.9381   25.6181  -70.1644 H         1 UNK         0.0836 
    112 H112      -76.2363   22.5327  -74.0822 H         1 UNK         0.3022 
    113 H113      -78.2640   22.3687  -75.2422 H         1 UNK         0.0747 
    114 H114      -80.0291   23.0215  -73.5621 H         1 UNK         0.0793 
    115 H115      -78.4346   23.0820  -72.8267 H         1 UNK         0.0793 
    116 H116      -79.2300   24.5721  -73.3136 H         1 UNK         0.0793 
    117 H117      -79.0555   24.9999  -76.1944 H         1 UNK         0.3047 
    118 H118      -80.4394   24.1989  -78.5981 H         1 UNK         0.0822 
    119 H119      -82.9389   24.3052  -78.7828 H         1 UNK         0.0807 
    120 H120      -83.0821   23.6700  -77.1441 H         1 UNK         0.0807 
    121 H121      -82.3675   22.6880  -78.4125 H         1 UNK         0.0807 
    122 H122      -80.6417   26.3100  -78.0207 H         1 UNK         0.2946 
    123 H123      -80.6562   28.1041  -76.6559 H         1 UNK         0.1144 
    124 H124      -83.7253   28.2150  -76.5618 H         1 UNK         0.0793 
    125 H125      -82.7594   28.1577  -78.0289 H         1 UNK         0.0793 
    126 H126      -82.6546   29.5560  -76.9737 H         1 UNK         0.0793 
    127 H127      -82.3931   28.8627  -74.5596 H         1 UNK         0.2896 
@<TRIPOS>BOND
     1    1    2 1    
     2    1   67 1    
     3    1   68 1    
     4    1   69 1    
     5    2    3 2    
     6    2    4 am   BACKBONE|DICT|INTERRES
     7    4    5 1    
     8    4   70 1    
     9    5    6 1    
    10    5   65 1    
    11    5   71 1    
    12    6    7 1    
    13    6   72 1    
    14    6   73 1    
    15    7    8 1    
    16    8    9 1    
    17    8   74 1    
    18    8   75 1    
    19    9   10 ar   
    20    9   14 ar   
    21   10   11 ar   
    22   10   76 1    
    23   11   12 ar   
    24   11   48 1    
    25   12   13 ar   
    26   12   77 1    
    27   13   14 ar   
    28   13   15 1    
    29   14   78 1    
    30   15   16 1    
    31   15   79 1    
    32   15   80 1    
    33   16   17 1    
    34   17   18 1    
    35   17   81 1    
    36   17   82 1    
    37   18   19 1    
    38   18   22 1    
    39   18   83 1    
    40   19   20 am   BACKBONE|DICT|INTERRES
    41   19   21 2    
    42   20   84 1    
    43   20   85 1    
    44   22   23 am   BACKBONE|DICT|INTERRES
    45   22   86 1    
    46   23   24 2    
    47   23   25 1    
    48   25   26 1    
    49   25   27 1    
    50   25   87 1    
    51   26   88 1    
    52   26   89 1    
    53   26   90 1    
    54   27   28 am   BACKBONE|DICT|INTERRES
    55   27   91 1    
    56   28   29 2    
    57   28   30 1    
    58   30   31 1    
    59   30   32 1    
    60   30   92 1    
    61   31   93 1    
    62   31   94 1    
    63   31   95 1    
    64   32   33 am   BACKBONE|DICT|INTERRES
    65   32   96 1    
    66   33   34 2    
    67   33   35 1    
    68   35   36 1    
    69   35   37 1    
    70   35   97 1    
    71   36   98 1    
    72   36   99 1    
    73   36  100 1    
    74   37   38 am   BACKBONE|DICT|INTERRES
    75   37  101 1    
    76   38   39 2    
    77   38   40 1    
    78   40   41 1    
    79   40   42 1    
    80   40  102 1    
    81   41  103 1    
    82   41  104 1    
    83   41  105 1    
    84   42   43 am   BACKBONE|DICT|INTERRES
    85   42  106 1    
    86   43   44 2    
    87   43   45 1    
    88   45   46 1    
    89   45   49 1    
    90   45  107 1    
    91   46   47 1    
    92   46  108 1    
    93   46  109 1    
    94   47   48 1    
    95   48  110 1    
    96   48  111 1    
    97   49   50 am   BACKBONE|DICT|INTERRES
    98   49  112 1    
    99   50   51 2    
   100   50   52 1    
   101   52   53 1    
   102   52   54 1    
   103   52  113 1    
   104   53  114 1    
   105   53  115 1    
   106   53  116 1    
   107   54   55 am   BACKBONE|DICT|INTERRES
   108   54  117 1    
   109   55   56 2    
   110   55   57 1    
   111   57   58 1    
   112   57   59 1    
   113   57  118 1    
   114   58  119 1    
   115   58  120 1    
   116   58  121 1    
   117   59   60 am   BACKBONE|DICT|INTERRES
   118   59  122 1    
   119   60   61 2    
   120   60   62 1    
   121   62   63 1    
   122   62   64 1    
   123   62  123 1    
   124   63  124 1    
   125   63  125 1    
   126   63  126 1    
   127   64   65 am   BACKBONE|DICT|INTERRES
   128   64  127 1    
   129   65   66 2    
@<TRIPOS>SUBSTRUCTURE
     1 UNK         1 GROUP             0       ****    0 ROOT    
