@<TRIPOS>MOLECULE
3R135
127   129    1
SMALL
USER_CHARGES


@<TRIPOS>ATOM
      1 CA        -73.8205   25.5245  -70.0725 C.3       0 UNK        -0.1998 
      2 C         -75.3045   25.7777  -69.8496 C.2       0 UNK         0.4909 
      3 O         -75.6886   26.2854  -68.7956 O.2       0 UNK        -0.5240 
      4 N         -76.1419   25.4137  -70.8255 N.am      1 UNK        -0.4739 
      5 CA        -77.5976   25.5161  -70.7778 C.3       1 UNK         0.0864 
      6 C6        -78.0969   26.9503  -71.0970 C.3       11 UNK        -0.0881 
      7 S7        -79.8022   27.2277  -70.5108 S.3       11 UNK        -0.2682 
      8 C8        -79.9070   29.0480  -70.5208 C.3       11 UNK         0.0289 
      9 C9        -79.7039   29.6684  -71.9005 C.ar      11 UNK        -0.0687 
     10 C10       -80.3637   29.1620  -73.0266 C.ar      11 UNK        -0.0823 
     11 C11       -80.1775   29.7451  -74.2840 C.ar      11 UNK        -0.0830 
     12 C12       -79.3399   30.8561  -74.4100 C.ar      11 UNK        -0.1021 
     13 C13       -78.6841   31.3785  -73.2928 C.ar      11 UNK        -0.0753 
     14 C14       -78.8692   30.7813  -72.0422 C.ar      11 UNK        -0.0933 
     15 C15       -77.7773   32.5906  -73.4408 C.3       11 UNK         0.0166 
     16 S16       -76.1475   32.1271  -74.1011 S.3       11 UNK        -0.2615 
     17 C17       -75.5058   31.0941  -72.7409 C.3       11 UNK        -0.0865 
     18 CA        -73.9695   30.9224  -72.8071 C.3       10 UNK         0.0862 
     19 C         -73.4556   30.1472  -71.5655 C.2       10 UNK         0.5551 
     20 N         -72.8354   30.8317  -70.6145 N.am      10 UNK        -0.7319 
     21 O         -73.6613   28.9423  -71.4398 O.2       10 UNK        -0.5018 
     22 N         -73.5635   30.2588  -74.0505 N.am      10 UNK        -0.4509 
     23 C         -72.3204   30.2481  -74.5431 C.2       10 UNK         0.4899 
     24 O         -71.3835   30.8937  -74.0696 O.2       10 UNK        -0.4839 
     25 CA        -72.1077   29.3417  -75.7687 C.3       9 UNK         0.0222 
     26 CB        -70.6388   29.2739  -76.2371 C.3       9 UNK        -0.1966 
     27 N         -72.6533   27.9985  -75.5456 N.am      9 UNK        -0.4218 
     28 C         -72.2877   27.1148  -74.6018 C.2       9 UNK         0.5020 
     29 O         -71.3864   27.2971  -73.7824 O.2       9 UNK        -0.5274 
     30 CA        -73.0552   25.7818  -74.5853 C.3       8 UNK         0.0270 
     31 CB        -74.3911   25.9390  -73.8409 C.3       8 UNK        -0.1976 
     32 N         -73.3046   25.2586  -75.9296 N.am      8 UNK        -0.4313 
     33 C         -72.3539   24.8941  -76.8033 C.2       8 UNK         0.5041 
     34 O         -71.1520   24.8474  -76.5386 O.2       8 UNK        -0.5577 
     35 CA        -72.8250   24.5491  -78.2232 C.3       7 UNK         0.0284 
     36 CB        -73.3036   23.0911  -78.2971 C.3       7 UNK        -0.1958 
     37 N         -73.8915   25.4540  -78.6609 N.am      7 UNK        -0.4454 
     38 C         -73.6786   26.6987  -79.1129 C.2       7 UNK         0.5089 
     39 O         -72.5599   27.1852  -79.2769 O.2       7 UNK        -0.5125 
     40 CA        -74.9172   27.5538  -79.4350 C.3       6 UNK         0.0408 
     41 CB        -75.2929   27.4137  -80.9185 C.3       6 UNK        -0.1791 
     42 N         -76.0828   27.2321  -78.6078 N.am      6 UNK        -0.4762 
     43 C         -76.1956   27.5172  -77.3020 C.2       6 UNK         0.5007 
     44 O         -75.3185   28.0808  -76.6461 O.2       6 UNK        -0.5032 
     45 CA        -77.4926   27.0513  -76.6088 C.3       5 UNK         0.0783 
     46 C46       -78.6171   28.0985  -76.8134 C.3       11 UNK        -0.0857 
     47 S47       -80.1935   27.5958  -76.0407 S.3       11 UNK        -0.2512 
     48 C48       -80.8974   29.1844  -75.5010 C.3       11 UNK         0.0225 
     49 N         -77.9128   25.7060  -77.0251 N.am      5 UNK        -0.4615 
     50 C         -77.1867   24.5842  -76.9495 C.2       4 UNK         0.5053 
     51 O         -76.0014   24.5628  -76.6131 O.2       4 UNK        -0.5105 
     52 CA        -77.9129   23.2755  -77.3161 C.3       4 UNK         0.0263 
     53 CB        -77.0299   22.0286  -77.1282 C.3       4 UNK        -0.1981 
     54 N         -79.1365   23.1020  -76.5311 N.am      4 UNK        -0.4224 
     55 C         -80.3316   23.6322  -76.8250 C.2       3 UNK         0.4895 
     56 O         -80.5269   24.3595  -77.7994 O.2       3 UNK        -0.5091 
     57 CA        -81.5054   23.2977  -75.8867 C.3       3 UNK         0.0250 
     58 CB        -82.3880   22.2013  -76.5056 C.3       3 UNK        -0.1996 
     59 N         -81.0750   22.8705  -74.5508 N.am      3 UNK        -0.4254 
     60 C         -80.6466   23.7063  -73.5950 C.2       2 UNK         0.5004 
     61 O         -80.6298   24.9310  -73.7280 O.2       2 UNK        -0.5226 
     62 CA        -80.2044   23.0713  -72.2594 C.3       2 UNK         0.0269 
     63 CB        -79.5023   21.7035  -72.4297 C.3       2 UNK        -0.1926 
     64 N         -79.3861   23.9876  -71.4528 N.am      2 UNK        -0.4687 
     65 C         -78.1683   24.4661  -71.7482 C.2       1 UNK         0.5165 
     66 O         -77.4995   24.1178  -72.7264 O.2       1 UNK        -0.5079 
     67 H67       -73.3004   26.4678  -70.2374 H         1 UNK         0.0900 
     68 H68       -73.6418   24.8806  -70.9333 H         1 UNK         0.0900 
     69 H69       -73.3847   25.0431  -69.1975 H         1 UNK         0.0900 
     70 H70       -75.8029   24.9556  -71.6628 H         1 UNK         0.2959 
     71 H71       -77.9115   25.2408  -69.7679 H         1 UNK         0.1079 
     72 H72       -77.4575   27.6864  -70.6070 H         1 UNK         0.0837 
     73 H73       -78.0372   27.1646  -72.1664 H         1 UNK         0.0837 
     74 H74       -80.8891   29.3425  -70.1493 H         1 UNK         0.0685 
     75 H75       -79.1783   29.4392  -69.8090 H         1 UNK         0.0685 
     76 H76       -81.0146   28.3033  -72.9290 H         1 UNK         0.1434 
     77 H77       -79.1928   31.3159  -75.3779 H         1 UNK         0.1329 
     78 H78       -78.3632   31.1868  -71.1768 H         1 UNK         0.1335 
     79 H79       -78.2396   33.3124  -74.1158 H         1 UNK         0.0680 
     80 H80       -77.6533   33.1031  -72.4854 H         1 UNK         0.0680 
     81 H81       -76.0057   30.1234  -72.7698 H         1 UNK         0.1032 
     82 H82       -75.7890   31.5571  -71.7936 H         1 UNK         0.1032 
     83 H83       -73.5226   31.9191  -72.8013 H         1 UNK         0.0461 
     84 H84       -72.5114   30.3447  -69.7937 H         1 UNK         0.3453 
     85 H85       -72.6686   31.8216  -70.7084 H         1 UNK         0.3453 
     86 H86       -74.2660   29.6902  -74.5005 H         1 UNK         0.2984 
     87 H87       -72.6921   29.7765  -76.5810 H         1 UNK         0.0554 
     88 H88       -70.5343   28.6367  -77.1155 H         1 UNK         0.0847 
     89 H89       -69.9808   28.8841  -75.4599 H         1 UNK         0.0847 
     90 H90       -70.2703   30.2639  -76.5079 H         1 UNK         0.0847 
     91 H91       -73.4682   27.7704  -76.1087 H         1 UNK         0.3141 
     92 H92       -72.4452   25.0520  -74.0491 H         1 UNK         0.0743 
     93 H93       -75.0789   26.5944  -74.3744 H         1 UNK         0.0784 
     94 H94       -74.8859   24.9767  -73.7078 H         1 UNK         0.0784 
     95 H95       -74.2362   26.3759  -72.8541 H         1 UNK         0.0784 
     96 H96       -74.2783   25.1727  -76.2147 H         1 UNK         0.3213 
     97 H97       -71.9741   24.6588  -78.8996 H         1 UNK         0.0855 
     98 H98       -74.0734   22.8825  -77.5553 H         1 UNK         0.0814 
     99 H99       -72.4780   22.4053  -78.1026 H         1 UNK         0.0814 
    100 H100      -73.7029   22.8479  -79.2818 H         1 UNK         0.0814 
    101 H101      -74.8428   25.1527  -78.4997 H         1 UNK         0.3105 
    102 H102      -74.6516   28.5972  -79.2506 H         1 UNK         0.0547 
    103 H103      -74.4499   27.6747  -81.5601 H         1 UNK         0.0837 
    104 H104      -75.5873   26.3936  -81.1680 H         1 UNK         0.0837 
    105 H105      -76.1161   28.0768  -81.1846 H         1 UNK         0.0837 
    106 H106      -76.8502   26.7563  -79.0611 H         1 UNK         0.3020 
    107 H107      -77.2775   26.9930  -75.5396 H         1 UNK         0.1245 
    108 H108      -78.3068   29.0612  -76.4038 H         1 UNK         0.0781 
    109 H109      -78.8060   28.2644  -77.8758 H         1 UNK         0.0781 
    110 H110      -81.9497   29.0351  -75.2552 H         1 UNK         0.0836 
    111 H111      -80.8771   29.8918  -76.3316 H         1 UNK         0.0836 
    112 H112      -78.8856   25.6149  -77.2969 H         1 UNK         0.3022 
    113 H113      -78.1754   23.3368  -78.3744 H         1 UNK         0.0747 
    114 H114      -77.5827   21.1136  -77.3414 H         1 UNK         0.0793 
    115 H115      -76.1808   22.0500  -77.8102 H         1 UNK         0.0793 
    116 H116      -76.6389   21.9562  -76.1122 H         1 UNK         0.0793 
    117 H117      -79.0526   22.5613  -75.6833 H         1 UNK         0.3047 
    118 H118      -82.1083   24.2034  -75.7866 H         1 UNK         0.0822 
    119 H119      -83.2645   22.0017  -75.8887 H         1 UNK         0.0807 
    120 H120      -81.8433   21.2646  -76.6307 H         1 UNK         0.0807 
    121 H121      -82.7496   22.5015  -77.4903 H         1 UNK         0.0807 
    122 H122      -81.0916   21.8784  -74.3616 H         1 UNK         0.2946 
    123 H123      -81.1204   22.9062  -71.6896 H         1 UNK         0.1144 
    124 H124      -80.1876   20.9461  -72.8110 H         1 UNK         0.0793 
    125 H125      -79.1270   21.3331  -71.4756 H         1 UNK         0.0793 
    126 H126      -78.6576   21.7590  -73.1174 H         1 UNK         0.0793 
    127 H127      -79.8604   24.3909  -70.6561 H         1 UNK         0.2896 
@<TRIPOS>BOND
     1    1    2 1    
     2    1   67 1    
     3    1   68 1    
     4    1   69 1    
     5    2    3 2    
     6    2    4 am   BACKBONE|DICT|INTERRES
     7    4    5 1    
     8    4   70 1    
     9    5    6 1    
    10    5   65 1    
    11    5   71 1    
    12    6    7 1    
    13    6   72 1    
    14    6   73 1    
    15    7    8 1    
    16    8    9 1    
    17    8   74 1    
    18    8   75 1    
    19    9   10 ar   
    20    9   14 ar   
    21   10   11 ar   
    22   10   76 1    
    23   11   12 ar   
    24   11   48 1    
    25   12   13 ar   
    26   12   77 1    
    27   13   14 ar   
    28   13   15 1    
    29   14   78 1    
    30   15   16 1    
    31   15   79 1    
    32   15   80 1    
    33   16   17 1    
    34   17   18 1    
    35   17   81 1    
    36   17   82 1    
    37   18   19 1    
    38   18   22 1    
    39   18   83 1    
    40   19   20 am   BACKBONE|DICT|INTERRES
    41   19   21 2    
    42   20   84 1    
    43   20   85 1    
    44   22   23 am   BACKBONE|DICT|INTERRES
    45   22   86 1    
    46   23   24 2    
    47   23   25 1    
    48   25   26 1    
    49   25   27 1    
    50   25   87 1    
    51   26   88 1    
    52   26   89 1    
    53   26   90 1    
    54   27   28 am   BACKBONE|DICT|INTERRES
    55   27   91 1    
    56   28   29 2    
    57   28   30 1    
    58   30   31 1    
    59   30   32 1    
    60   30   92 1    
    61   31   93 1    
    62   31   94 1    
    63   31   95 1    
    64   32   33 am   BACKBONE|DICT|INTERRES
    65   32   96 1    
    66   33   34 2    
    67   33   35 1    
    68   35   36 1    
    69   35   37 1    
    70   35   97 1    
    71   36   98 1    
    72   36   99 1    
    73   36  100 1    
    74   37   38 am   BACKBONE|DICT|INTERRES
    75   37  101 1    
    76   38   39 2    
    77   38   40 1    
    78   40   41 1    
    79   40   42 1    
    80   40  102 1    
    81   41  103 1    
    82   41  104 1    
    83   41  105 1    
    84   42   43 am   BACKBONE|DICT|INTERRES
    85   42  106 1    
    86   43   44 2    
    87   43   45 1    
    88   45   46 1    
    89   45   49 1    
    90   45  107 1    
    91   46   47 1    
    92   46  108 1    
    93   46  109 1    
    94   47   48 1    
    95   48  110 1    
    96   48  111 1    
    97   49   50 am   BACKBONE|DICT|INTERRES
    98   49  112 1    
    99   50   51 2    
   100   50   52 1    
   101   52   53 1    
   102   52   54 1    
   103   52  113 1    
   104   53  114 1    
   105   53  115 1    
   106   53  116 1    
   107   54   55 am   BACKBONE|DICT|INTERRES
   108   54  117 1    
   109   55   56 2    
   110   55   57 1    
   111   57   58 1    
   112   57   59 1    
   113   57  118 1    
   114   58  119 1    
   115   58  120 1    
   116   58  121 1    
   117   59   60 am   BACKBONE|DICT|INTERRES
   118   59  122 1    
   119   60   61 2    
   120   60   62 1    
   121   62   63 1    
   122   62   64 1    
   123   62  123 1    
   124   63  124 1    
   125   63  125 1    
   126   63  126 1    
   127   64   65 am   BACKBONE|DICT|INTERRES
   128   64  127 1    
   129   65   66 2    
@<TRIPOS>SUBSTRUCTURE
     1 UNK         1 GROUP             0       ****    0 ROOT    
