@<TRIPOS>MOLECULE
3R135
127   129    1
SMALL
USER_CHARGES


@<TRIPOS>ATOM
      1 CA        -83.2121   27.0341  -76.6556 C.3       0 UNK        -0.1998 
      2 C         -82.0752   27.6809  -75.8799 C.2       0 UNK         0.4909 
      3 O         -81.2098   28.3138  -76.4853 O.2       0 UNK        -0.5240 
      4 N         -82.0618   27.5166  -74.5489 N.am      1 UNK        -0.4739 
      5 CA        -81.0675   28.0844  -73.6297 C.3       1 UNK         0.0864 
      6 C6        -81.4255   27.8002  -72.1504 C.3       11 UNK        -0.0881 
      7 S7        -80.7896   29.1017  -71.0433 S.3       11 UNK        -0.2682 
      8 C8        -79.9321   28.1331  -69.7629 C.3       11 UNK         0.0289 
      9 C9        -78.5236   27.7209  -70.1715 C.ar      11 UNK        -0.0687 
     10 C10       -78.1993   26.3721  -70.3490 C.ar      11 UNK        -0.0823 
     11 C11       -76.8818   25.9823  -70.6177 C.ar      11 UNK        -0.0830 
     12 C12       -75.8885   26.9638  -70.7298 C.ar      11 UNK        -0.1021 
     13 C13       -76.2036   28.3167  -70.5710 C.ar      11 UNK        -0.0753 
     14 C14       -77.5216   28.6876  -70.2918 C.ar      11 UNK        -0.0933 
     15 C15       -75.1183   29.3796  -70.6450 C.3       11 UNK         0.0166 
     16 S16       -75.1107   30.2139  -72.2583 S.3       11 UNK        -0.2615 
     17 C17       -74.0324   31.6350  -71.8863 C.3       11 UNK        -0.0865 
     18 CA        -73.4787   32.3284  -73.1588 C.3       10 UNK         0.0862 
     19 C         -72.7692   33.6623  -72.7769 C.2       10 UNK         0.5551 
     20 N         -71.4533   33.7800  -72.9085 N.am      10 UNK        -0.7319 
     21 O         -73.4299   34.6073  -72.3529 O.2       10 UNK        -0.5018 
     22 N         -72.6716   31.4039  -73.9754 N.am      10 UNK        -0.4509 
     23 C         -72.2765   31.6320  -75.2362 C.2       10 UNK         0.4899 
     24 O         -72.5811   32.6349  -75.8821 O.2       10 UNK        -0.4839 
     25 CA        -71.3745   30.5687  -75.8875 C.3       9 UNK         0.0222 
     26 CB        -69.8930   30.9192  -75.6707 C.3       9 UNK        -0.1966 
     27 N         -71.6334   29.2166  -75.3843 N.am      9 UNK        -0.4218 
     28 C         -72.6709   28.4613  -75.7662 C.2       9 UNK         0.5020 
     29 O         -73.4923   28.8022  -76.6207 O.2       9 UNK        -0.5274 
     30 CA        -72.8166   27.1105  -75.0544 C.3       8 UNK         0.0270 
     31 CB        -73.5373   27.2805  -73.7078 C.3       8 UNK        -0.1976 
     32 N         -73.5882   26.1871  -75.8829 N.am      8 UNK        -0.4313 
     33 C         -73.0676   25.1782  -76.5836 C.2       8 UNK         0.5041 
     34 O         -71.8663   24.8916  -76.6065 O.2       8 UNK        -0.5577 
     35 CA        -74.0529   24.3302  -77.3915 C.3       7 UNK         0.0284 
     36 CB        -74.1557   24.8175  -78.8460 C.3       7 UNK        -0.1958 
     37 N         -73.5568   22.9567  -77.3502 N.am      7 UNK        -0.4454 
     38 C         -74.2321   21.8005  -77.3222 C.2       7 UNK         0.5089 
     39 O         -73.6358   20.7268  -77.2384 O.2       7 UNK        -0.5125 
     40 CA        -75.7781   21.8027  -77.3957 C.3       6 UNK         0.0408 
     41 CB        -76.3678   20.3841  -77.5350 C.3       6 UNK        -0.1791 
     42 N         -76.4331   22.4947  -76.2808 N.am      6 UNK        -0.4762 
     43 C         -76.2508   22.3261  -74.9599 C.2       6 UNK         0.5007 
     44 O         -75.4797   21.5006  -74.4706 O.2       6 UNK        -0.5032 
     45 CA        -77.0891   23.2304  -74.0213 C.3       5 UNK         0.0783 
     46 C46       -76.2628   24.4368  -73.5025 C.3       11 UNK        -0.0857 
     47 S47       -75.3267   24.0566  -71.9908 S.3       11 UNK        -0.2512 
     48 C48       -76.5443   24.4937  -70.7028 C.3       11 UNK         0.0225 
     49 N         -78.3283   23.7048  -74.6405 N.am      5 UNK        -0.4615 
     50 C         -79.3334   22.9464  -75.0951 C.2       4 UNK         0.5053 
     51 O         -79.4118   21.7303  -74.9237 O.2       4 UNK        -0.5105 
     52 CA        -80.4072   23.6686  -75.9267 C.3       4 UNK         0.0263 
     53 CB        -81.6327   23.9932  -75.0584 C.3       4 UNK        -0.1981 
     54 N         -79.9033   24.8923  -76.5680 N.am      4 UNK        -0.4224 
     55 C         -78.9986   24.9155  -77.5604 C.2       3 UNK         0.4895 
     56 O         -78.5159   23.9030  -78.0660 O.2       3 UNK        -0.5091 
     57 CA        -78.5173   26.2922  -78.0439 C.3       3 UNK         0.0250 
     58 CB        -79.4613   26.8484  -79.1214 C.3       3 UNK        -0.1996 
     59 N         -78.3959   27.2533  -76.9460 N.am      3 UNK        -0.4254 
     60 C         -77.3662   27.2851  -76.0853 C.2       2 UNK         0.5004 
     61 O         -76.3893   26.5392  -76.1577 O.2       2 UNK        -0.5226 
     62 CA        -77.4471   28.3005  -74.9303 C.3       2 UNK         0.0269 
     63 CB        -76.8285   29.6386  -75.3629 C.3       2 UNK        -0.1926 
     64 N         -78.8085   28.5461  -74.4521 N.am      2 UNK        -0.4687 
     65 C         -79.6418   27.6121  -73.9762 C.2       1 UNK         0.5165 
     66 O         -79.3514   26.4186  -73.8724 O.2       1 UNK        -0.5079 
     67 H67       -83.9131   26.5181  -76.0000 H         1 UNK         0.0900 
     68 H68       -83.7638   27.7928  -77.2100 H         1 UNK         0.0900 
     69 H69       -82.8171   26.3122  -77.3699 H         1 UNK         0.0900 
     70 H70       -82.7915   26.9695  -74.1151 H         1 UNK         0.2959 
     71 H71       -81.1164   29.1647  -73.7862 H         1 UNK         0.1079 
     72 H72       -81.0821   26.8130  -71.8336 H         1 UNK         0.0837 
     73 H73       -82.5087   27.7904  -72.0195 H         1 UNK         0.0837 
     74 H74       -80.5360   27.2652  -69.4934 H         1 UNK         0.0685 
     75 H75       -79.8656   28.7421  -68.8601 H         1 UNK         0.0685 
     76 H76       -78.9690   25.6205  -70.2390 H         1 UNK         0.1434 
     77 H77       -74.8643   26.6743  -70.9191 H         1 UNK         0.1329 
     78 H78       -77.7652   29.7314  -70.1469 H         1 UNK         0.1335 
     79 H79       -74.1363   28.9401  -70.4631 H         1 UNK         0.0680 
     80 H80       -75.2791   30.1157  -69.8557 H         1 UNK         0.0680 
     81 H81       -74.6180   32.3377  -71.2897 H         1 UNK         0.1032 
     82 H82       -73.2099   31.3064  -71.2480 H         1 UNK         0.1032 
     83 H83       -74.3360   32.6164  -73.7706 H         1 UNK         0.0461 
     84 H84       -70.9042   33.0109  -73.2556 H         1 UNK         0.3453 
     85 H85       -71.0073   34.6490  -72.6601 H         1 UNK         0.3453 
     86 H86       -72.3890   30.5478  -73.5248 H         1 UNK         0.2984 
     87 H87       -71.5684   30.5840  -76.9624 H         1 UNK         0.0554 
     88 H88       -69.6684   31.9162  -76.0528 H         1 UNK         0.0847 
     89 H89       -69.2397   30.2208  -76.1943 H         1 UNK         0.0847 
     90 H90       -69.6207   30.9063  -74.6147 H         1 UNK         0.0847 
     91 H91       -70.9944   28.8555  -74.6899 H         1 UNK         0.3141 
     92 H92       -71.8192   26.7086  -74.8632 H         1 UNK         0.0743 
     93 H93       -74.5442   27.6760  -73.8375 H         1 UNK         0.0784 
     94 H94       -73.6188   26.3291  -73.1829 H         1 UNK         0.0784 
     95 H95       -72.9989   27.9645  -73.0511 H         1 UNK         0.0784 
     96 H96       -74.5803   26.4015  -75.9909 H         1 UNK         0.3213 
     97 H97       -75.0284   24.4214  -76.9222 H         1 UNK         0.0855 
     98 H98       -73.1914   24.7755  -79.3542 H         1 UNK         0.0814 
     99 H99       -74.5011   25.8517  -78.8832 H         1 UNK         0.0814 
    100 H100      -74.8639   24.2201  -79.4197 H         1 UNK         0.0814 
    101 H101      -72.5509   22.9234  -77.2371 H         1 UNK         0.3105 
    102 H102      -76.0449   22.3532  -78.2985 H         1 UNK         0.0547 
    103 H103      -77.4496   20.4175  -77.6645 H         1 UNK         0.0837 
    104 H104      -76.1549   19.7700  -76.6592 H         1 UNK         0.0837 
    105 H105      -75.9535   19.8706  -78.4034 H         1 UNK         0.0837 
    106 H106      -77.1203   23.1813  -76.5693 H         1 UNK         0.3020 
    107 H107      -77.3919   22.6103  -73.1748 H         1 UNK         0.1245 
    108 H108      -76.9098   25.2881  -73.2845 H         1 UNK         0.0781 
    109 H109      -75.5665   24.8008  -74.2592 H         1 UNK         0.0781 
    110 H110      -76.1504   24.1778  -69.7361 H         1 UNK         0.0836 
    111 H111      -77.4481   23.9059  -70.8710 H         1 UNK         0.0836 
    112 H112      -78.4232   24.7093  -74.7346 H         1 UNK         0.3022 
    113 H113      -80.7219   22.9822  -76.7157 H         1 UNK         0.0747 
    114 H114      -82.4420   24.4125  -75.6542 H         1 UNK         0.0793 
    115 H115      -82.0216   23.0909  -74.5843 H         1 UNK         0.0793 
    116 H116      -81.3914   24.6968  -74.2615 H         1 UNK         0.0793 
    117 H117      -80.1947   25.7708  -76.1652 H         1 UNK         0.3047 
    118 H118      -77.5323   26.1582  -78.4974 H         1 UNK         0.0822 
    119 H119      -79.1057   27.8054  -79.5035 H         1 UNK         0.0807 
    120 H120      -80.4731   26.9945  -78.7424 H         1 UNK         0.0807 
    121 H121      -79.5275   26.1658  -79.9698 H         1 UNK         0.0807 
    122 H122      -79.1793   27.8816  -76.7969 H         1 UNK         0.2946 
    123 H123      -76.8770   27.9000  -74.0893 H         1 UNK         0.1144 
    124 H124      -76.9052   30.3895  -74.5771 H         1 UNK         0.0793 
    125 H125      -77.3120   30.0403  -76.2542 H         1 UNK         0.0793 
    126 H126      -75.7696   29.5206  -75.5902 H         1 UNK         0.0793 
    127 H127      -79.1437   29.4953  -74.5322 H         1 UNK         0.2896 
@<TRIPOS>BOND
     1    1    2 1    
     2    1   67 1    
     3    1   68 1    
     4    1   69 1    
     5    2    3 2    
     6    2    4 am   BACKBONE|DICT|INTERRES
     7    4    5 1    
     8    4   70 1    
     9    5    6 1    
    10    5   65 1    
    11    5   71 1    
    12    6    7 1    
    13    6   72 1    
    14    6   73 1    
    15    7    8 1    
    16    8    9 1    
    17    8   74 1    
    18    8   75 1    
    19    9   10 ar   
    20    9   14 ar   
    21   10   11 ar   
    22   10   76 1    
    23   11   12 ar   
    24   11   48 1    
    25   12   13 ar   
    26   12   77 1    
    27   13   14 ar   
    28   13   15 1    
    29   14   78 1    
    30   15   16 1    
    31   15   79 1    
    32   15   80 1    
    33   16   17 1    
    34   17   18 1    
    35   17   81 1    
    36   17   82 1    
    37   18   19 1    
    38   18   22 1    
    39   18   83 1    
    40   19   20 am   BACKBONE|DICT|INTERRES
    41   19   21 2    
    42   20   84 1    
    43   20   85 1    
    44   22   23 am   BACKBONE|DICT|INTERRES
    45   22   86 1    
    46   23   24 2    
    47   23   25 1    
    48   25   26 1    
    49   25   27 1    
    50   25   87 1    
    51   26   88 1    
    52   26   89 1    
    53   26   90 1    
    54   27   28 am   BACKBONE|DICT|INTERRES
    55   27   91 1    
    56   28   29 2    
    57   28   30 1    
    58   30   31 1    
    59   30   32 1    
    60   30   92 1    
    61   31   93 1    
    62   31   94 1    
    63   31   95 1    
    64   32   33 am   BACKBONE|DICT|INTERRES
    65   32   96 1    
    66   33   34 2    
    67   33   35 1    
    68   35   36 1    
    69   35   37 1    
    70   35   97 1    
    71   36   98 1    
    72   36   99 1    
    73   36  100 1    
    74   37   38 am   BACKBONE|DICT|INTERRES
    75   37  101 1    
    76   38   39 2    
    77   38   40 1    
    78   40   41 1    
    79   40   42 1    
    80   40  102 1    
    81   41  103 1    
    82   41  104 1    
    83   41  105 1    
    84   42   43 am   BACKBONE|DICT|INTERRES
    85   42  106 1    
    86   43   44 2    
    87   43   45 1    
    88   45   46 1    
    89   45   49 1    
    90   45  107 1    
    91   46   47 1    
    92   46  108 1    
    93   46  109 1    
    94   47   48 1    
    95   48  110 1    
    96   48  111 1    
    97   49   50 am   BACKBONE|DICT|INTERRES
    98   49  112 1    
    99   50   51 2    
   100   50   52 1    
   101   52   53 1    
   102   52   54 1    
   103   52  113 1    
   104   53  114 1    
   105   53  115 1    
   106   53  116 1    
   107   54   55 am   BACKBONE|DICT|INTERRES
   108   54  117 1    
   109   55   56 2    
   110   55   57 1    
   111   57   58 1    
   112   57   59 1    
   113   57  118 1    
   114   58  119 1    
   115   58  120 1    
   116   58  121 1    
   117   59   60 am   BACKBONE|DICT|INTERRES
   118   59  122 1    
   119   60   61 2    
   120   60   62 1    
   121   62   63 1    
   122   62   64 1    
   123   62  123 1    
   124   63  124 1    
   125   63  125 1    
   126   63  126 1    
   127   64   65 am   BACKBONE|DICT|INTERRES
   128   64  127 1    
   129   65   66 2    
@<TRIPOS>SUBSTRUCTURE
     1 UNK         1 GROUP             0       ****    0 ROOT    
