@<TRIPOS>MOLECULE
3R135
127   129    1
SMALL
USER_CHARGES


@<TRIPOS>ATOM
      1 CA        -77.3905   21.1235  -74.9522 C.3       0 UNK        -0.1998 
      2 C         -78.2134   21.7601  -73.8433 C.2       0 UNK         0.4909 
      3 O         -78.9142   21.0508  -73.1199 O.2       0 UNK        -0.5240 
      4 N         -78.1414   23.0896  -73.6996 N.am      1 UNK        -0.4739 
      5 CA        -78.8747   23.8511  -72.6851 C.3       1 UNK         0.0864 
      6 C6        -78.0590   25.0684  -72.1808 C.3       11 UNK        -0.0881 
      7 S7        -78.7219   25.6998  -70.6008 S.3       11 UNK        -0.2682 
      8 C8        -77.4823   26.9614  -70.1546 C.3       11 UNK         0.0289 
      9 C9        -77.4619   28.2287  -71.0131 C.ar      11 UNK        -0.0687 
     10 C10       -78.4578   28.5474  -71.9479 C.ar      11 UNK        -0.0823 
     11 C11       -78.3750   29.7184  -72.7083 C.ar      11 UNK        -0.0830 
     12 C12       -77.2889   30.5807  -72.5272 C.ar      11 UNK        -0.1021 
     13 C13       -76.2971   30.2911  -71.5861 C.ar      11 UNK        -0.0753 
     14 C14       -76.4004   29.1191  -70.8295 C.ar      11 UNK        -0.0933 
     15 C15       -75.1386   31.2631  -71.3757 C.3       11 UNK         0.0166 
     16 S16       -73.5279   30.4190  -71.2811 S.3       11 UNK        -0.2615 
     17 C17       -72.3596   31.7983  -71.5273 C.3       11 UNK        -0.0865 
     18 CA        -72.0764   32.0995  -73.0243 C.3       10 UNK         0.0862 
     19 C         -71.0112   33.2241  -73.1750 C.2       10 UNK         0.5551 
     20 N         -69.8673   32.9781  -73.8018 N.am      10 UNK        -0.7319 
     21 O         -71.2316   34.3425  -72.7166 O.2       10 UNK        -0.5018 
     22 N         -71.8053   30.8725  -73.7923 N.am      10 UNK        -0.4509 
     23 C         -71.9537   30.7400  -75.1133 C.2       10 UNK         0.4899 
     24 O         -72.2526   31.6685  -75.8645 O.2       10 UNK        -0.4839 
     25 CA        -71.7758   29.3326  -75.7059 C.3       9 UNK         0.0222 
     26 CB        -70.3013   29.0434  -76.0460 C.3       9 UNK        -0.1966 
     27 N         -72.3787   28.2544  -74.9092 N.am      9 UNK        -0.4218 
     28 C         -71.9932   27.7332  -73.7337 C.2       9 UNK         0.5020 
     29 O         -71.0457   28.1574  -73.0711 O.2       9 UNK        -0.5274 
     30 CA        -72.7955   26.5252  -73.2152 C.3       8 UNK         0.0270 
     31 CB        -73.9678   26.9741  -72.3286 C.3       8 UNK        -0.1976 
     32 N         -73.3149   25.7167  -74.3193 N.am      8 UNK        -0.4313 
     33 C         -72.6506   24.7128  -74.9085 C.2       8 UNK         0.5041 
     34 O         -71.5621   24.2868  -74.5206 O.2       8 UNK        -0.5577 
     35 CA        -73.3075   24.0801  -76.1493 C.3       7 UNK         0.0284 
     36 CB        -74.2380   22.9308  -75.7333 C.3       7 UNK        -0.1958 
     37 N         -74.0596   25.0530  -76.9465 N.am      7 UNK        -0.4454 
     38 C         -73.4950   26.0424  -77.6570 C.2       7 UNK         0.5089 
     39 O         -72.2796   26.1673  -77.8040 O.2       7 UNK        -0.5125 
     40 CA        -74.4306   27.0929  -78.2886 C.3       6 UNK         0.0408 
     41 CB        -74.6180   26.8069  -79.7867 C.3       6 UNK        -0.1791 
     42 N         -75.7485   27.1987  -77.6531 N.am      6 UNK        -0.4762 
     43 C         -75.9836   27.5020  -76.3667 C.2       6 UNK         0.5007 
     44 O         -75.0906   27.7513  -75.5583 O.2       6 UNK        -0.5032 
     45 CA        -77.4473   27.4461  -75.8855 C.3       5 UNK         0.0783 
     46 C46       -78.0683   28.8613  -75.8482 C.3       11 UNK        -0.0857 
     47 S47       -79.6950   28.8440  -75.0223 S.3       11 UNK        -0.2512 
     48 C48       -79.4775   30.0785  -73.6985 C.3       11 UNK         0.0225 
     49 N         -78.2540   26.5165  -76.6869 N.am      5 UNK        -0.4615 
     50 C         -78.0786   25.1924  -76.7540 C.2       4 UNK         0.5053 
     51 O         -77.2432   24.5846  -76.0798 O.2       4 UNK        -0.5105 
     52 CA        -78.9690   24.4433  -77.7639 C.3       4 UNK         0.0263 
     53 CB        -78.6039   22.9550  -77.8951 C.3       4 UNK        -0.1981 
     54 N         -80.3864   24.5471  -77.4256 N.am      4 UNK        -0.4224 
     55 C         -81.1758   25.6135  -77.5951 C.2       3 UNK         0.4895 
     56 O         -80.7962   26.6592  -78.1243 O.2       3 UNK        -0.5091 
     57 CA        -82.6201   25.5130  -77.0666 C.3       3 UNK         0.0250 
     58 CB        -83.5437   24.8282  -78.0929 C.3       3 UNK        -0.1996 
     59 N         -82.7327   24.8992  -75.7325 N.am      3 UNK        -0.4254 
     60 C         -82.4671   23.6383  -75.3601 C.2       2 UNK         0.5004 
     61 O         -82.1186   22.7445  -76.1347 O.2       2 UNK        -0.5226 
     62 CA        -82.5136   23.3453  -73.8525 C.3       2 UNK         0.0269 
     63 CB        -83.2932   22.0531  -73.5545 C.3       2 UNK        -0.1926 
     64 N         -81.1567   23.2235  -73.3151 N.am      2 UNK        -0.4687 
     65 C         -80.2679   24.2236  -73.2318 C.2       1 UNK         0.5165 
     66 O         -80.5103   25.3790  -73.5848 O.2       1 UNK        -0.5079 
     67 H67       -78.0154   20.4650  -75.5548 H         1 UNK         0.0900 
     68 H68       -76.5821   20.5305  -74.5257 H         1 UNK         0.0900 
     69 H69       -76.9530   21.8705  -75.6120 H         1 UNK         0.0900 
     70 H70       -77.6301   23.6386  -74.3855 H         1 UNK         0.2959 
     71 H71       -79.0369   23.2033  -71.8198 H         1 UNK         0.1079 
     72 H72       -77.0225   24.7732  -72.0091 H         1 UNK         0.0837 
     73 H73       -78.0266   25.8665  -72.9230 H         1 UNK         0.0837 
     74 H74       -76.4956   26.4959  -70.1728 H         1 UNK         0.0685 
     75 H75       -77.6631   27.2562  -69.1201 H         1 UNK         0.0685 
     76 H76       -79.3051   27.8925  -72.0966 H         1 UNK         0.1434 
     77 H77       -77.2242   31.4903  -73.1087 H         1 UNK         0.1329 
     78 H78       -75.6402   28.8927  -70.0943 H         1 UNK         0.1335 
     79 H79       -75.3044   31.8263  -70.4566 H         1 UNK         0.0680 
     80 H80       -75.1055   31.9894  -72.1891 H         1 UNK         0.0680 
     81 H81       -71.4316   31.5361  -71.0159 H         1 UNK         0.1032 
     82 H82       -72.7424   32.6860  -71.0198 H         1 UNK         0.1032 
     83 H83       -72.9955   32.5209  -73.4359 H         1 UNK         0.0461 
     84 H84       -69.1847   33.7134  -73.8975 H         1 UNK         0.3453 
     85 H85       -69.6855   32.0634  -74.1822 H         1 UNK         0.3453 
     86 H86       -71.5463   30.0481  -73.2590 H         1 UNK         0.2984 
     87 H87       -72.3276   29.3251  -76.6471 H         1 UNK         0.0554 
     88 H88       -70.1927   28.0737  -76.5326 H         1 UNK         0.0847 
     89 H89       -69.6661   29.0479  -75.1600 H         1 UNK         0.0847 
     90 H90       -69.9064   29.7953  -76.7304 H         1 UNK         0.0847 
     91 H91       -73.2652   27.9167  -75.2760 H         1 UNK         0.3141 
     92 H92       -72.1265   25.9151  -72.6044 H         1 UNK         0.0743 
     93 H93       -74.5692   26.1259  -72.0017 H         1 UNK         0.0784 
     94 H94       -73.6015   27.4716  -71.4306 H         1 UNK         0.0784 
     95 H95       -74.6272   27.6738  -72.8445 H         1 UNK         0.0784 
     96 H96       -74.1827   26.0324  -74.7342 H         1 UNK         0.3213 
     97 H97       -72.5125   23.6688  -76.7755 H         1 UNK         0.0855 
     98 H98       -75.0352   23.2785  -75.0754 H         1 UNK         0.0814 
     99 H99       -73.6864   22.1589  -75.1950 H         1 UNK         0.0814 
    100 H100      -74.6968   22.4564  -76.6009 H         1 UNK         0.0814 
    101 H101      -75.0690   25.0133  -76.8827 H         1 UNK         0.3105 
    102 H102      -73.9413   28.0634  -78.1851 H         1 UNK         0.0547 
    103 H103      -73.6553   26.7524  -80.2973 H         1 UNK         0.0837 
    104 H104      -75.1299   25.8588  -79.9565 H         1 UNK         0.0837 
    105 H105      -75.1943   27.5937  -80.2737 H         1 UNK         0.0837 
    106 H106      -76.5470   27.0043  -78.2400 H         1 UNK         0.3020 
    107 H107      -77.4175   27.0620  -74.8640 H         1 UNK         0.1245 
    108 H108      -78.1951   29.2566  -76.8578 H         1 UNK         0.0781 
    109 H109      -77.4075   29.5592  -75.3305 H         1 UNK         0.0781 
    110 H110      -80.4182   30.1762  -73.1551 H         1 UNK         0.0836 
    111 H111      -79.2894   31.0514  -74.1554 H         1 UNK         0.0836 
    112 H112      -79.0168   26.9200  -77.2222 H         1 UNK         0.3022 
    113 H113      -78.8078   24.9096  -78.7381 H         1 UNK         0.0747 
    114 H114      -79.1336   22.4933  -78.7285 H         1 UNK         0.0793 
    115 H115      -77.5366   22.8193  -78.0766 H         1 UNK         0.0793 
    116 H116      -78.8638   22.4015  -76.9937 H         1 UNK         0.0793 
    117 H117      -80.8112   23.7389  -76.9760 H         1 UNK         0.3047 
    118 H118      -82.9735   26.5384  -76.9452 H         1 UNK         0.0822 
    119 H119      -83.5273   25.3612  -79.0445 H         1 UNK         0.0807 
    120 H120      -84.5775   24.8136  -77.7479 H         1 UNK         0.0807 
    121 H121      -83.2432   23.7998  -78.2954 H         1 UNK         0.0807 
    122 H122      -82.9274   25.5593  -74.9915 H         1 UNK         0.2946 
    123 H123      -83.0154   24.1710  -73.3427 H         1 UNK         0.1144 
    124 H124      -84.3076   22.1100  -73.9517 H         1 UNK         0.0793 
    125 H125      -83.3752   21.8778  -72.4816 H         1 UNK         0.0793 
    126 H126      -82.8169   21.1791  -74.0011 H         1 UNK         0.0793 
    127 H127      -80.8422   22.2913  -73.0746 H         1 UNK         0.2896 
@<TRIPOS>BOND
     1    1    2 1    
     2    1   67 1    
     3    1   68 1    
     4    1   69 1    
     5    2    3 2    
     6    2    4 am   BACKBONE|DICT|INTERRES
     7    4    5 1    
     8    4   70 1    
     9    5    6 1    
    10    5   65 1    
    11    5   71 1    
    12    6    7 1    
    13    6   72 1    
    14    6   73 1    
    15    7    8 1    
    16    8    9 1    
    17    8   74 1    
    18    8   75 1    
    19    9   10 ar   
    20    9   14 ar   
    21   10   11 ar   
    22   10   76 1    
    23   11   12 ar   
    24   11   48 1    
    25   12   13 ar   
    26   12   77 1    
    27   13   14 ar   
    28   13   15 1    
    29   14   78 1    
    30   15   16 1    
    31   15   79 1    
    32   15   80 1    
    33   16   17 1    
    34   17   18 1    
    35   17   81 1    
    36   17   82 1    
    37   18   19 1    
    38   18   22 1    
    39   18   83 1    
    40   19   20 am   BACKBONE|DICT|INTERRES
    41   19   21 2    
    42   20   84 1    
    43   20   85 1    
    44   22   23 am   BACKBONE|DICT|INTERRES
    45   22   86 1    
    46   23   24 2    
    47   23   25 1    
    48   25   26 1    
    49   25   27 1    
    50   25   87 1    
    51   26   88 1    
    52   26   89 1    
    53   26   90 1    
    54   27   28 am   BACKBONE|DICT|INTERRES
    55   27   91 1    
    56   28   29 2    
    57   28   30 1    
    58   30   31 1    
    59   30   32 1    
    60   30   92 1    
    61   31   93 1    
    62   31   94 1    
    63   31   95 1    
    64   32   33 am   BACKBONE|DICT|INTERRES
    65   32   96 1    
    66   33   34 2    
    67   33   35 1    
    68   35   36 1    
    69   35   37 1    
    70   35   97 1    
    71   36   98 1    
    72   36   99 1    
    73   36  100 1    
    74   37   38 am   BACKBONE|DICT|INTERRES
    75   37  101 1    
    76   38   39 2    
    77   38   40 1    
    78   40   41 1    
    79   40   42 1    
    80   40  102 1    
    81   41  103 1    
    82   41  104 1    
    83   41  105 1    
    84   42   43 am   BACKBONE|DICT|INTERRES
    85   42  106 1    
    86   43   44 2    
    87   43   45 1    
    88   45   46 1    
    89   45   49 1    
    90   45  107 1    
    91   46   47 1    
    92   46  108 1    
    93   46  109 1    
    94   47   48 1    
    95   48  110 1    
    96   48  111 1    
    97   49   50 am   BACKBONE|DICT|INTERRES
    98   49  112 1    
    99   50   51 2    
   100   50   52 1    
   101   52   53 1    
   102   52   54 1    
   103   52  113 1    
   104   53  114 1    
   105   53  115 1    
   106   53  116 1    
   107   54   55 am   BACKBONE|DICT|INTERRES
   108   54  117 1    
   109   55   56 2    
   110   55   57 1    
   111   57   58 1    
   112   57   59 1    
   113   57  118 1    
   114   58  119 1    
   115   58  120 1    
   116   58  121 1    
   117   59   60 am   BACKBONE|DICT|INTERRES
   118   59  122 1    
   119   60   61 2    
   120   60   62 1    
   121   62   63 1    
   122   62   64 1    
   123   62  123 1    
   124   63  124 1    
   125   63  125 1    
   126   63  126 1    
   127   64   65 am   BACKBONE|DICT|INTERRES
   128   64  127 1    
   129   65   66 2    
@<TRIPOS>SUBSTRUCTURE
     1 UNK         1 GROUP             0       ****    0 ROOT    
