@<TRIPOS>MOLECULE
3R135
127   129    1
SMALL
USER_CHARGES


@<TRIPOS>ATOM
      1 CA        -83.8624   24.6765  -75.3241 C.3       0 UNK        -0.1998 
      2 C         -82.9472   25.8606  -75.0542 C.2       0 UNK         0.4909 
      3 O         -82.5061   26.5206  -75.9953 O.2       0 UNK        -0.5240 
      4 N         -82.6420   26.1308  -73.7780 N.am      1 UNK        -0.4739 
      5 CA        -81.7578   27.2186  -73.3446 C.3       1 UNK         0.0864 
      6 C6        -81.8065   27.4124  -71.8081 C.3       11 UNK        -0.0881 
      7 S7        -81.5960   29.1616  -71.3404 S.3       11 UNK        -0.2682 
      8 C8        -80.2961   29.0633  -70.0705 C.3       11 UNK         0.0289 
      9 C9        -78.9227   28.7973  -70.6689 C.ar      11 UNK        -0.0687 
     10 C10       -78.2696   27.5841  -70.4375 C.ar      11 UNK        -0.0823 
     11 C11       -76.9897   27.3535  -70.9506 C.ar      11 UNK        -0.0830 
     12 C12       -76.3678   28.3589  -71.7024 C.ar      11 UNK        -0.1021 
     13 C13       -77.0152   29.5757  -71.9604 C.ar      11 UNK        -0.0753 
     14 C14       -78.2912   29.7831  -71.4307 C.ar      11 UNK        -0.0933 
     15 C15       -76.4002   30.6966  -72.8032 C.3       11 UNK         0.0166 
     16 S16       -74.7690   30.3423  -73.5418 S.3       11 UNK        -0.2615 
     17 C17       -73.6515   30.5959  -72.1169 C.3       11 UNK        -0.0865 
     18 CA        -72.3964   31.4197  -72.5093 C.3       10 UNK         0.0862 
     19 C         -71.5619   31.8215  -71.2583 C.2       10 UNK         0.5551 
     20 N         -70.2861   31.4662  -71.1648 N.am      10 UNK        -0.7319 
     21 O         -72.0810   32.4783  -70.3591 O.2       10 UNK        -0.5018 
     22 N         -71.6254   30.7297  -73.5557 N.am      10 UNK        -0.4509 
     23 C         -70.8922   31.3215  -74.5059 C.2       10 UNK         0.4899 
     24 O         -70.7343   32.5397  -74.5905 O.2       10 UNK        -0.4839 
     25 CA        -70.2111   30.4025  -75.5416 C.3       9 UNK         0.0222 
     26 CB        -68.6909   30.3680  -75.3101 C.3       9 UNK        -0.1966 
     27 N         -70.7255   29.0264  -75.5472 N.am      9 UNK        -0.4218 
     28 C         -71.9315   28.6582  -76.0027 C.2       9 UNK         0.5020 
     29 O         -72.7417   29.4378  -76.5098 O.2       9 UNK        -0.5274 
     30 CA        -72.2964   27.1754  -75.7995 C.3       8 UNK         0.0270 
     31 CB        -72.6823   26.9121  -74.3334 C.3       8 UNK        -0.1976 
     32 N         -73.4021   26.7411  -76.6535 N.am      8 UNK        -0.4313 
     33 C         -73.3576   26.6356  -77.9869 C.2       8 UNK         0.5041 
     34 O         -72.3457   26.8371  -78.6632 O.2       8 UNK        -0.5577 
     35 CA        -74.6760   26.2072  -78.6559 C.3       7 UNK         0.0284 
     36 CB        -74.5751   26.0905  -80.1923 C.3       7 UNK        -0.1958 
     37 N         -75.2179   24.9775  -78.0641 N.am      7 UNK        -0.4454 
     38 C         -74.6532   23.7592  -78.0587 C.2       7 UNK         0.5089 
     39 O         -73.5634   23.4994  -78.5720 O.2       7 UNK        -0.5125 
     40 CA        -75.4655   22.6370  -77.3848 C.3       6 UNK         0.0408 
     41 CB        -74.6583   21.3379  -77.1738 C.3       6 UNK        -0.1791 
     42 N         -76.1193   23.0646  -76.1440 N.am      6 UNK        -0.4762 
     43 C         -75.5407   23.4301  -74.9875 C.2       6 UNK         0.5007 
     44 O         -74.3218   23.4493  -74.8175 O.2       6 UNK        -0.5032 
     45 CA        -76.4689   23.8583  -73.8218 C.3       5 UNK         0.0783 
     46 C46       -76.2001   25.3264  -73.3943 C.3       11 UNK        -0.0857 
     47 S47       -75.1201   25.4526  -71.9327 S.3       11 UNK        -0.2512 
     48 C48       -76.3029   26.0166  -70.6571 C.3       11 UNK         0.0225 
     49 N         -77.8921   23.6660  -74.1160 N.am      5 UNK        -0.4615 
     50 C         -78.5392   22.4969  -74.1947 C.2       4 UNK         0.5053 
     51 O         -78.0364   21.4113  -73.9078 O.2       4 UNK        -0.5105 
     52 CA        -79.9714   22.5542  -74.7559 C.3       4 UNK         0.0263 
     53 CB        -81.0018   22.6936  -73.6239 C.3       4 UNK        -0.1981 
     54 N         -80.1333   23.6493  -75.7219 N.am      4 UNK        -0.4224 
     55 C         -79.5891   23.6558  -76.9492 C.2       3 UNK         0.4895 
     56 O         -78.9809   22.6998  -77.4281 O.2       3 UNK        -0.5091 
     57 CA        -79.6790   24.9608  -77.7567 C.3       3 UNK         0.0250 
     58 CB        -80.9682   24.9990  -78.5919 C.3       3 UNK        -0.1996 
     59 N         -79.5888   26.1510  -76.9050 N.am      3 UNK        -0.4254 
     60 C         -78.4483   26.5752  -76.3358 C.2       2 UNK         0.5004 
     61 O         -77.3587   26.0309  -76.5157 O.2       2 UNK        -0.5226 
     62 CA        -78.5281   27.7825  -75.3808 C.3       2 UNK         0.0269 
     63 CB        -78.2257   29.0816  -76.1422 C.3       2 UNK        -0.1926 
     64 N         -79.8158   27.9083  -74.6895 N.am      2 UNK        -0.4687 
     65 C         -80.3247   26.9835  -73.8637 C.2       1 UNK         0.5165 
     66 O         -79.7402   25.9380  -73.5720 O.2       1 UNK        -0.5079 
     67 H67       -84.1880   24.1941  -74.4027 H         1 UNK         0.0900 
     68 H68       -83.3474   23.9343  -75.9335 H         1 UNK         0.0900 
     69 H69       -84.7487   25.0055  -75.8657 H         1 UNK         0.0900 
     70 H70       -83.0099   25.5434  -73.0434 H         1 UNK         0.2959 
     71 H71       -82.1489   28.1226  -73.8177 H         1 UNK         0.1079 
     72 H72       -82.7809   27.1124  -71.4191 H         1 UNK         0.0837 
     73 H73       -81.0809   26.7776  -71.2953 H         1 UNK         0.0837 
     74 H74       -80.2668   30.0094  -69.5282 H         1 UNK         0.0685 
     75 H75       -80.5619   28.3012  -69.3362 H         1 UNK         0.0685 
     76 H76       -78.7555   26.8196  -69.8466 H         1 UNK         0.1434 
     77 H77       -75.3776   28.1798  -72.0908 H         1 UNK         0.1329 
     78 H78       -78.8013   30.7195  -71.6128 H         1 UNK         0.1335 
     79 H79       -76.3341   31.6062  -72.2047 H         1 UNK         0.0680 
     80 H80       -77.0859   30.9234  -73.6198 H         1 UNK         0.0680 
     81 H81       -73.3631   29.6224  -71.7169 H         1 UNK         0.1032 
     82 H82       -74.2018   31.0968  -71.3183 H         1 UNK         0.1032 
     83 H83       -72.7525   32.3630  -72.9285 H         1 UNK         0.0461 
     84 H84       -69.8500   30.9370  -71.9022 H         1 UNK         0.3453 
     85 H85       -69.7547   31.7368  -70.3522 H         1 UNK         0.3453 
     86 H86       -71.6996   29.7249  -73.5673 H         1 UNK         0.2984 
     87 H87       -70.3946   30.8360  -76.5269 H         1 UNK         0.0554 
     88 H88       -68.1839   29.7900  -76.0831 H         1 UNK         0.0847 
     89 H89       -68.4371   29.9327  -74.3429 H         1 UNK         0.0847 
     90 H90       -68.2686   31.3738  -75.3344 H         1 UNK         0.0847 
     91 H91       -70.1230   28.3197  -75.1488 H         1 UNK         0.3141 
     92 H92       -71.4233   26.5689  -76.0496 H         1 UNK         0.0743 
     93 H93       -73.5553   27.4939  -74.0344 H         1 UNK         0.0784 
     94 H94       -72.9118   25.8587  -74.1690 H         1 UNK         0.0784 
     95 H95       -71.8699   27.1693  -73.6531 H         1 UNK         0.0784 
     96 H96       -74.2825   26.5614  -76.1948 H         1 UNK         0.3213 
     97 H97       -75.3990   26.9953  -78.4377 H         1 UNK         0.0855 
     98 H98       -74.2746   27.0413  -80.6341 H         1 UNK         0.0814 
     99 H99       -75.5337   25.8170  -80.6330 H         1 UNK         0.0814 
    100 H100      -73.8396   25.3461  -80.4983 H         1 UNK         0.0814 
    101 H101      -76.0878   25.1039  -77.5494 H         1 UNK         0.3105 
    102 H102      -76.2737   22.4017  -78.0784 H         1 UNK         0.0547 
    103 H103      -74.3038   20.9410  -78.1257 H         1 UNK         0.0837 
    104 H104      -73.7819   21.5000  -76.5460 H         1 UNK         0.0837 
    105 H105      -75.2675   20.5634  -76.7082 H         1 UNK         0.0837 
    106 H106      -77.1298   23.0957  -76.1893 H         1 UNK         0.3020 
    107 H107      -76.2327   23.1930  -72.9883 H         1 UNK         0.1245 
    108 H108      -77.1366   25.8318  -73.1611 H         1 UNK         0.0781 
    109 H109      -75.7626   25.9184  -74.2004 H         1 UNK         0.0781 
    110 H110      -75.7734   26.1019  -69.7075 H         1 UNK         0.0836 
    111 H111      -77.0520   25.2342  -70.5242 H         1 UNK         0.0836 
    112 H112      -78.4278   24.5111  -74.2790 H         1 UNK         0.3022 
    113 H113      -80.1615   21.6109  -75.2727 H         1 UNK         0.0747 
    114 H114      -82.0205   22.6631  -74.0090 H         1 UNK         0.0793 
    115 H115      -80.9045   21.8749  -72.9096 H         1 UNK         0.0793 
    116 H116      -80.8772   23.6229  -73.0682 H         1 UNK         0.0793 
    117 H117      -80.5634   24.4972  -75.3811 H         1 UNK         0.3047 
    118 H118      -78.8346   24.9775  -78.4499 H         1 UNK         0.0822 
    119 H119      -81.0395   25.9194  -79.1716 H         1 UNK         0.0807 
    120 H120      -81.8612   24.9223  -77.9722 H         1 UNK         0.0807 
    121 H121      -80.9950   24.1686  -79.2989 H         1 UNK         0.0807 
    122 H122      -80.4582   26.6266  -76.6881 H         1 UNK         0.2946 
    123 H123      -77.7579   27.6502  -74.6182 H         1 UNK         0.1144 
    124 H124      -77.2409   29.0377  -76.6099 H         1 UNK         0.0793 
    125 H125      -78.2267   29.9432  -75.4756 H         1 UNK         0.0793 
    126 H126      -78.9552   29.2673  -76.9315 H         1 UNK         0.0793 
    127 H127      -80.3639   28.7299  -74.9006 H         1 UNK         0.2896 
@<TRIPOS>BOND
     1    1    2 1    
     2    1   67 1    
     3    1   68 1    
     4    1   69 1    
     5    2    3 2    
     6    2    4 am   BACKBONE|DICT|INTERRES
     7    4    5 1    
     8    4   70 1    
     9    5    6 1    
    10    5   65 1    
    11    5   71 1    
    12    6    7 1    
    13    6   72 1    
    14    6   73 1    
    15    7    8 1    
    16    8    9 1    
    17    8   74 1    
    18    8   75 1    
    19    9   10 ar   
    20    9   14 ar   
    21   10   11 ar   
    22   10   76 1    
    23   11   12 ar   
    24   11   48 1    
    25   12   13 ar   
    26   12   77 1    
    27   13   14 ar   
    28   13   15 1    
    29   14   78 1    
    30   15   16 1    
    31   15   79 1    
    32   15   80 1    
    33   16   17 1    
    34   17   18 1    
    35   17   81 1    
    36   17   82 1    
    37   18   19 1    
    38   18   22 1    
    39   18   83 1    
    40   19   20 am   BACKBONE|DICT|INTERRES
    41   19   21 2    
    42   20   84 1    
    43   20   85 1    
    44   22   23 am   BACKBONE|DICT|INTERRES
    45   22   86 1    
    46   23   24 2    
    47   23   25 1    
    48   25   26 1    
    49   25   27 1    
    50   25   87 1    
    51   26   88 1    
    52   26   89 1    
    53   26   90 1    
    54   27   28 am   BACKBONE|DICT|INTERRES
    55   27   91 1    
    56   28   29 2    
    57   28   30 1    
    58   30   31 1    
    59   30   32 1    
    60   30   92 1    
    61   31   93 1    
    62   31   94 1    
    63   31   95 1    
    64   32   33 am   BACKBONE|DICT|INTERRES
    65   32   96 1    
    66   33   34 2    
    67   33   35 1    
    68   35   36 1    
    69   35   37 1    
    70   35   97 1    
    71   36   98 1    
    72   36   99 1    
    73   36  100 1    
    74   37   38 am   BACKBONE|DICT|INTERRES
    75   37  101 1    
    76   38   39 2    
    77   38   40 1    
    78   40   41 1    
    79   40   42 1    
    80   40  102 1    
    81   41  103 1    
    82   41  104 1    
    83   41  105 1    
    84   42   43 am   BACKBONE|DICT|INTERRES
    85   42  106 1    
    86   43   44 2    
    87   43   45 1    
    88   45   46 1    
    89   45   49 1    
    90   45  107 1    
    91   46   47 1    
    92   46  108 1    
    93   46  109 1    
    94   47   48 1    
    95   48  110 1    
    96   48  111 1    
    97   49   50 am   BACKBONE|DICT|INTERRES
    98   49  112 1    
    99   50   51 2    
   100   50   52 1    
   101   52   53 1    
   102   52   54 1    
   103   52  113 1    
   104   53  114 1    
   105   53  115 1    
   106   53  116 1    
   107   54   55 am   BACKBONE|DICT|INTERRES
   108   54  117 1    
   109   55   56 2    
   110   55   57 1    
   111   57   58 1    
   112   57   59 1    
   113   57  118 1    
   114   58  119 1    
   115   58  120 1    
   116   58  121 1    
   117   59   60 am   BACKBONE|DICT|INTERRES
   118   59  122 1    
   119   60   61 2    
   120   60   62 1    
   121   62   63 1    
   122   62   64 1    
   123   62  123 1    
   124   63  124 1    
   125   63  125 1    
   126   63  126 1    
   127   64   65 am   BACKBONE|DICT|INTERRES
   128   64  127 1    
   129   65   66 2    
@<TRIPOS>SUBSTRUCTURE
     1 UNK         1 GROUP             0       ****    0 ROOT    
