@<TRIPOS>MOLECULE
3R135
127   129    1
SMALL
USER_CHARGES


@<TRIPOS>ATOM
      1 CA        -85.1205   26.7089  -70.5170 C.3       0 UNK        -0.1998 
      2 C         -84.9352   26.7694  -72.0256 C.2       0 UNK         0.4909 
      3 O         -85.5905   26.0238  -72.7542 O.2       0 UNK        -0.5240 
      4 N         -84.0478   27.6533  -72.4999 N.am      1 UNK        -0.4739 
      5 CA        -83.7094   27.8337  -73.9183 C.3       1 UNK         0.0864 
      6 C6        -83.0206   29.1993  -74.1838 C.3       11 UNK        -0.0881 
      7 S7        -81.6321   29.5713  -73.0551 S.3       11 UNK        -0.2682 
      8 C8        -80.2091   29.1758  -74.1139 C.3       11 UNK         0.0289 
      9 C9        -78.9360   29.0294  -73.2962 C.ar      11 UNK        -0.0687 
     10 C10       -78.7924   27.9437  -72.4317 C.ar      11 UNK        -0.0823 
     11 C11       -77.6164   27.7647  -71.7026 C.ar      11 UNK        -0.0830 
     12 C12       -76.5695   28.6785  -71.8505 C.ar      11 UNK        -0.1021 
     13 C13       -76.6962   29.7788  -72.7133 C.ar      11 UNK        -0.0753 
     14 C14       -77.8892   29.9457  -73.4262 C.ar      11 UNK        -0.0933 
     15 C15       -75.5805   30.8016  -72.9410 C.3       11 UNK         0.0166 
     16 S16       -74.0873   30.5942  -71.9129 S.3       11 UNK        -0.2615 
     17 C17       -72.9632   31.7962  -72.7028 C.3       11 UNK        -0.0865 
     18 CA        -72.2040   31.2122  -73.9252 C.3       10 UNK         0.0862 
     19 C         -71.2737   32.2856  -74.5628 C.2       10 UNK         0.5551 
     20 N         -69.9607   32.0933  -74.5994 N.am      10 UNK        -0.7319 
     21 O         -71.7562   33.3126  -75.0336 O.2       10 UNK        -0.5018 
     22 N         -71.5544   29.9305  -73.6025 N.am      10 UNK        -0.4509 
     23 C         -71.1816   29.0093  -74.4982 C.2       10 UNK         0.4899 
     24 O         -71.2725   29.1669  -75.7164 O.2       10 UNK        -0.4839 
     25 CA        -70.5891   27.7005  -73.9503 C.3       9 UNK         0.0222 
     26 CB        -70.8858   27.4450  -72.4565 C.3       9 UNK        -0.1966 
     27 N         -71.1052   26.5830  -74.7376 N.am      9 UNK        -0.4218 
     28 C         -70.3622   25.6175  -75.2898 C.2       9 UNK         0.5020 
     29 O         -69.1363   25.5480  -75.1822 O.2       9 UNK        -0.5274 
     30 CA        -71.0967   24.5219  -76.0811 C.3       8 UNK         0.0270 
     31 CB        -71.4183   23.3290  -75.1665 C.3       8 UNK        -0.1976 
     32 N         -72.3215   24.9758  -76.7481 N.am      8 UNK        -0.4313 
     33 C         -72.3394   25.7615  -77.8350 C.2       8 UNK         0.5041 
     34 O         -71.3275   26.2355  -78.3534 O.2       8 UNK        -0.5577 
     35 CA        -73.7075   26.0365  -78.4788 C.3       7 UNK         0.0284 
     36 CB        -74.1734   24.8238  -79.3014 C.3       7 UNK        -0.1958 
     37 N         -74.7282   26.3760  -77.4894 N.am      7 UNK        -0.4454 
     38 C         -74.8808   27.5904  -76.9432 C.2       7 UNK         0.5089 
     39 O         -74.2227   28.5783  -77.2678 O.2       7 UNK        -0.5125 
     40 CA        -75.9538   27.7283  -75.8473 C.3       6 UNK         0.0408 
     41 CB        -77.3265   27.9939  -76.4831 C.3       6 UNK        -0.1791 
     42 N         -76.0264   26.5560  -74.9689 N.am      6 UNK        -0.4762 
     43 C         -75.0174   26.1470  -74.1833 C.2       6 UNK         0.5007 
     44 O         -73.9512   26.7527  -74.0750 O.2       6 UNK        -0.5032 
     45 CA        -75.1673   24.7935  -73.4631 C.3       5 UNK         0.0783 
     46 C46       -75.5457   24.9304  -71.9660 C.3       11 UNK        -0.0857 
     47 S47       -77.3365   25.0081  -71.6259 S.3       11 UNK        -0.2512 
     48 C48       -77.5002   26.5908  -70.7439 C.3       11 UNK         0.0225 
     49 N         -76.0168   23.8521  -74.1999 N.am      5 UNK        -0.4615 
     50 C         -75.6596   23.2673  -75.3496 C.2       4 UNK         0.5053 
     51 O         -74.5767   23.4571  -75.9027 O.2       4 UNK        -0.5105 
     52 CA        -76.7005   22.3543  -76.0139 C.3       4 UNK         0.0263 
     53 CB        -76.9838   21.1116  -75.1532 C.3       4 UNK        -0.1981 
     54 N         -77.9550   23.0485  -76.3136 N.am      4 UNK        -0.4224 
     55 C         -78.0710   24.1081  -77.1280 C.2       3 UNK         0.4895 
     56 O         -77.1211   24.6347  -77.7059 O.2       3 UNK        -0.5091 
     57 CA        -79.4824   24.6804  -77.3474 C.3       3 UNK         0.0250 
     58 CB        -80.0937   24.1102  -78.6373 C.3       3 UNK        -0.1996 
     59 N         -80.4090   24.4575  -76.2337 N.am      3 UNK        -0.4254 
     60 C         -80.2807   25.0037  -75.0172 C.2       2 UNK         0.5004 
     61 O         -79.3222   25.6977  -74.6776 O.2       2 UNK        -0.5226 
     62 CA        -81.4107   24.7151  -74.0126 C.3       2 UNK         0.0269 
     63 CB        -80.8592   24.0780  -72.7269 C.3       2 UNK        -0.1926 
     64 N         -82.1739   25.9159  -73.6620 N.am      2 UNK        -0.4687 
     65 C         -82.9122   26.6485  -74.5105 C.2       1 UNK         0.5165 
     66 O         -83.0108   26.4037  -75.7138 O.2       1 UNK        -0.5079 
     67 H67       -86.1560   26.9270  -70.2572 H         1 UNK         0.0900 
     68 H68       -84.4830   27.4251  -69.9988 H         1 UNK         0.0900 
     69 H69       -84.8792   25.7119  -70.1492 H         1 UNK         0.0900 
     70 H70       -83.5371   28.2474  -71.8607 H         1 UNK         0.2959 
     71 H71       -84.6535   27.8469  -74.4684 H         1 UNK         0.1079 
     72 H72       -82.6941   29.2816  -75.2227 H         1 UNK         0.0837 
     73 H73       -83.7563   29.9944  -74.0537 H         1 UNK         0.0837 
     74 H74       -80.1001   29.9503  -74.8745 H         1 UNK         0.0685 
     75 H75       -80.3930   28.2422  -74.6462 H         1 UNK         0.0685 
     76 H76       -79.5966   27.2272  -72.3378 H         1 UNK         0.1434 
     77 H77       -75.6603   28.5181  -71.2903 H         1 UNK         0.1329 
     78 H78       -77.9947   30.7835  -74.1020 H         1 UNK         0.1335 
     79 H79       -75.9776   31.8035  -72.7712 H         1 UNK         0.0680 
     80 H80       -75.2874   30.7544  -73.9906 H         1 UNK         0.0680 
     81 H81       -73.5367   32.6799  -72.9903 H         1 UNK         0.1032 
     82 H82       -72.2530   32.1352  -71.9463 H         1 UNK         0.1032 
     83 H83       -72.9530   30.9938  -74.6890 H         1 UNK         0.0461 
     84 H84       -69.3682   32.7936  -75.0169 H         1 UNK         0.3453 
     85 H85       -69.5599   31.2504  -74.2210 H         1 UNK         0.3453 
     86 H86       -71.4541   29.7233  -72.6201 H         1 UNK         0.2984 
     87 H87       -69.5077   27.7827  -74.0740 H         1 UNK         0.0554 
     88 H88       -70.4933   26.4785  -72.1400 H         1 UNK         0.0847 
     89 H89       -71.9573   27.4476  -72.2498 H         1 UNK         0.0847 
     90 H90       -70.4178   28.1966  -71.8200 H         1 UNK         0.0847 
     91 H91       -72.1117   26.5831  -74.8765 H         1 UNK         0.3141 
     92 H92       -70.4114   24.1696  -76.8553 H         1 UNK         0.0743 
     93 H93       -72.0976   23.6091  -74.3619 H         1 UNK         0.0784 
     94 H94       -71.8771   22.5124  -75.7244 H         1 UNK         0.0784 
     95 H95       -70.5116   22.9358  -74.7045 H         1 UNK         0.0784 
     96 H96       -73.1967   24.5671  -76.4233 H         1 UNK         0.3213 
     97 H97       -73.5902   26.8793  -79.1638 H         1 UNK         0.0855 
     98 H98       -74.3408   23.9474  -78.6738 H         1 UNK         0.0814 
     99 H99       -73.4312   24.5523  -80.0531 H         1 UNK         0.0814 
    100 H100      -75.1048   25.0375  -79.8262 H         1 UNK         0.0814 
    101 H101      -75.3707   25.6372  -77.2208 H         1 UNK         0.3105 
    102 H102      -75.6928   28.5851  -75.2238 H         1 UNK         0.0547 
    103 H103      -77.3470   28.9738  -76.9609 H         1 UNK         0.0837 
    104 H104      -77.5670   27.2572  -77.2483 H         1 UNK         0.0837 
    105 H105      -78.1232   27.9739  -75.7425 H         1 UNK         0.0837 
    106 H106      -76.8882   26.0248  -74.9757 H         1 UNK         0.3020 
    107 H107      -74.1613   24.3689  -73.4720 H         1 UNK         0.1245 
    108 H108      -75.0351   25.7818  -71.5114 H         1 UNK         0.0781 
    109 H109      -75.1705   24.0571  -71.4304 H         1 UNK         0.0781 
    110 H110      -78.3990   26.5507  -70.1269 H         1 UNK         0.0836 
    111 H111      -76.6677   26.7238  -70.0513 H         1 UNK         0.0836 
    112 H112      -76.9366   23.6896  -73.8153 H         1 UNK         0.3022 
    113 H113      -76.2778   22.0174  -76.9630 H         1 UNK         0.0747 
    114 H114      -77.6251   20.4045  -75.6796 H         1 UNK         0.0793 
    115 H115      -76.0586   20.5866  -74.9105 H         1 UNK         0.0793 
    116 H116      -77.4707   21.3669  -74.2112 H         1 UNK         0.0793 
    117 H117      -78.7935   22.6869  -75.8841 H         1 UNK         0.3047 
    118 H118      -79.3787   25.7596  -77.4731 H         1 UNK         0.0822 
    119 H119      -81.0514   24.5792  -78.8641 H         1 UNK         0.0807 
    120 H120      -80.2530   23.0334  -78.5684 H         1 UNK         0.0807 
    121 H121      -79.4384   24.2885  -79.4914 H         1 UNK         0.0807 
    122 H122      -81.2358   23.9149  -76.4392 H         1 UNK         0.2946 
    123 H123      -82.1057   24.0043  -74.4650 H         1 UNK         0.1144 
    124 H124      -81.6646   23.7484  -72.0703 H         1 UNK         0.0793 
    125 H125      -80.2377   24.7771  -72.1676 H         1 UNK         0.0793 
    126 H126      -80.2458   23.2043  -72.9514 H         1 UNK         0.0793 
    127 H127      -82.1485   26.2042  -72.6954 H         1 UNK         0.2896 
@<TRIPOS>BOND
     1    1    2 1    
     2    1   67 1    
     3    1   68 1    
     4    1   69 1    
     5    2    3 2    
     6    2    4 am   BACKBONE|DICT|INTERRES
     7    4    5 1    
     8    4   70 1    
     9    5    6 1    
    10    5   65 1    
    11    5   71 1    
    12    6    7 1    
    13    6   72 1    
    14    6   73 1    
    15    7    8 1    
    16    8    9 1    
    17    8   74 1    
    18    8   75 1    
    19    9   10 ar   
    20    9   14 ar   
    21   10   11 ar   
    22   10   76 1    
    23   11   12 ar   
    24   11   48 1    
    25   12   13 ar   
    26   12   77 1    
    27   13   14 ar   
    28   13   15 1    
    29   14   78 1    
    30   15   16 1    
    31   15   79 1    
    32   15   80 1    
    33   16   17 1    
    34   17   18 1    
    35   17   81 1    
    36   17   82 1    
    37   18   19 1    
    38   18   22 1    
    39   18   83 1    
    40   19   20 am   BACKBONE|DICT|INTERRES
    41   19   21 2    
    42   20   84 1    
    43   20   85 1    
    44   22   23 am   BACKBONE|DICT|INTERRES
    45   22   86 1    
    46   23   24 2    
    47   23   25 1    
    48   25   26 1    
    49   25   27 1    
    50   25   87 1    
    51   26   88 1    
    52   26   89 1    
    53   26   90 1    
    54   27   28 am   BACKBONE|DICT|INTERRES
    55   27   91 1    
    56   28   29 2    
    57   28   30 1    
    58   30   31 1    
    59   30   32 1    
    60   30   92 1    
    61   31   93 1    
    62   31   94 1    
    63   31   95 1    
    64   32   33 am   BACKBONE|DICT|INTERRES
    65   32   96 1    
    66   33   34 2    
    67   33   35 1    
    68   35   36 1    
    69   35   37 1    
    70   35   97 1    
    71   36   98 1    
    72   36   99 1    
    73   36  100 1    
    74   37   38 am   BACKBONE|DICT|INTERRES
    75   37  101 1    
    76   38   39 2    
    77   38   40 1    
    78   40   41 1    
    79   40   42 1    
    80   40  102 1    
    81   41  103 1    
    82   41  104 1    
    83   41  105 1    
    84   42   43 am   BACKBONE|DICT|INTERRES
    85   42  106 1    
    86   43   44 2    
    87   43   45 1    
    88   45   46 1    
    89   45   49 1    
    90   45  107 1    
    91   46   47 1    
    92   46  108 1    
    93   46  109 1    
    94   47   48 1    
    95   48  110 1    
    96   48  111 1    
    97   49   50 am   BACKBONE|DICT|INTERRES
    98   49  112 1    
    99   50   51 2    
   100   50   52 1    
   101   52   53 1    
   102   52   54 1    
   103   52  113 1    
   104   53  114 1    
   105   53  115 1    
   106   53  116 1    
   107   54   55 am   BACKBONE|DICT|INTERRES
   108   54  117 1    
   109   55   56 2    
   110   55   57 1    
   111   57   58 1    
   112   57   59 1    
   113   57  118 1    
   114   58  119 1    
   115   58  120 1    
   116   58  121 1    
   117   59   60 am   BACKBONE|DICT|INTERRES
   118   59  122 1    
   119   60   61 2    
   120   60   62 1    
   121   62   63 1    
   122   62   64 1    
   123   62  123 1    
   124   63  124 1    
   125   63  125 1    
   126   63  126 1    
   127   64   65 am   BACKBONE|DICT|INTERRES
   128   64  127 1    
   129   65   66 2    
@<TRIPOS>SUBSTRUCTURE
     1 UNK         1 GROUP             0       ****    0 ROOT    
