@<TRIPOS>MOLECULE
3R135
127   129    1
SMALL
USER_CHARGES


@<TRIPOS>ATOM
      1 CA        -83.3927   23.6165  -73.4094 C.3       0 UNK        -0.1998 
      2 C         -82.8322   25.0012  -73.6935 C.2       0 UNK         0.4909 
      3 O         -82.8795   25.4641  -74.8340 O.2       0 UNK        -0.5240 
      4 N         -82.3033   25.6689  -72.6606 N.am      1 UNK        -0.4739 
      5 CA        -81.7253   27.0139  -72.7419 C.3       1 UNK         0.0864 
      6 C6        -81.5061   27.6460  -71.3435 C.3       11 UNK        -0.0881 
      7 S7        -80.5288   26.6252  -70.1848 S.3       11 UNK        -0.2682 
      8 C8        -79.5602   27.8928  -69.3058 C.3       11 UNK         0.0289 
      9 C9        -78.3305   28.3163  -70.0951 C.ar      11 UNK        -0.0687 
     10 C10       -77.1977   27.4993  -70.0996 C.ar      11 UNK        -0.0823 
     11 C11       -76.0621   27.8681  -70.8239 C.ar      11 UNK        -0.0830 
     12 C12       -76.0551   29.0773  -71.5222 C.ar      11 UNK        -0.1021 
     13 C13       -77.1752   29.9183  -71.5188 C.ar      11 UNK        -0.0753 
     14 C14       -78.3126   29.5216  -70.8055 C.ar      11 UNK        -0.0933 
     15 C15       -77.2056   31.2614  -72.2535 C.3       11 UNK         0.0166 
     16 S16       -75.5959   31.8605  -72.8845 S.3       11 UNK        -0.2615 
     17 C17       -75.6268   31.3642  -74.6460 C.3       11 UNK        -0.0865 
     18 CA        -74.9449   30.0005  -74.9853 C.3       10 UNK         0.0862 
     19 C         -74.9405   29.7236  -76.5226 C.2       10 UNK         0.5551 
     20 N         -73.9165   29.0951  -77.0885 N.am      10 UNK        -0.7319 
     21 O         -75.8837   30.0860  -77.2202 O.2       10 UNK        -0.5018 
     22 N         -73.6323   29.8030  -74.3438 N.am      10 UNK        -0.4509 
     23 C         -72.5475   30.5735  -74.5055 C.2       10 UNK         0.4899 
     24 O         -72.5299   31.6236  -75.1484 O.2       10 UNK        -0.4839 
     25 CA        -71.2418   30.0794  -73.8536 C.3       9 UNK         0.0222 
     26 CB        -71.0678   30.7233  -72.4681 C.3       9 UNK        -0.1966 
     27 N         -71.1206   28.6201  -73.7261 N.am      9 UNK        -0.4218 
     28 C         -71.1868   27.7325  -74.7302 C.2       9 UNK         0.5020 
     29 O         -71.4109   28.0486  -75.9012 O.2       9 UNK        -0.5274 
     30 CA        -70.9540   26.2552  -74.3631 C.3       8 UNK         0.0270 
     31 CB        -71.5533   25.8760  -72.9940 C.3       8 UNK        -0.1976 
     32 N         -71.5551   25.3964  -75.3815 N.am      8 UNK        -0.4313 
     33 C         -70.8904   24.6197  -76.2464 C.2       8 UNK         0.5041 
     34 O         -69.6628   24.5105  -76.2615 O.2       8 UNK        -0.5577 
     35 CA        -71.7183   23.7965  -77.2549 C.3       7 UNK         0.0284 
     36 CB        -71.6753   22.3024  -76.8916 C.3       7 UNK        -0.1958 
     37 N         -73.1180   24.2181  -77.3418 N.am      7 UNK        -0.4454 
     38 C         -73.5559   25.2941  -78.0088 C.2       7 UNK         0.5089 
     39 O         -72.8373   25.9987  -78.7177 O.2       7 UNK        -0.5125 
     40 CA        -75.0469   25.6503  -77.8544 C.3       6 UNK         0.0408 
     41 CB        -75.8426   25.1774  -79.0808 C.3       6 UNK        -0.1791 
     42 N         -75.6856   25.1281  -76.6401 N.am      6 UNK        -0.4762 
     43 C         -75.3379   25.4144  -75.3762 C.2       6 UNK         0.5007 
     44 O         -74.3576   26.1045  -75.0933 O.2       6 UNK        -0.5032 
     45 CA        -76.2100   24.8305  -74.2392 C.3       5 UNK         0.0783 
     46 C46       -76.3319   25.7948  -73.0299 C.3       11 UNK        -0.0857 
     47 S47       -75.2309   25.3336  -71.6486 S.3       11 UNK        -0.2512 
     48 C48       -74.8497   26.9484  -70.8887 C.3       11 UNK         0.0225 
     49 N         -77.5358   24.3997  -74.6951 N.am      5 UNK        -0.4615 
     50 C         -77.8236   23.2094  -75.2346 C.2       4 UNK         0.5053 
     51 O         -76.9836   22.3387  -75.4581 O.2       4 UNK        -0.5105 
     52 CA        -79.2908   22.9665  -75.6149 C.3       4 UNK         0.0263 
     53 CB        -80.0975   22.5113  -74.3895 C.3       4 UNK        -0.1981 
     54 N         -79.9006   24.1639  -76.1986 N.am      4 UNK        -0.4224 
     55 C         -79.7092   24.5566  -77.4665 C.2       3 UNK         0.4895 
     56 O         -79.0710   23.9065  -78.2946 O.2       3 UNK        -0.5091 
     57 CA        -80.3122   25.9098  -77.8798 C.3       3 UNK         0.0250 
     58 CB        -81.7760   25.7434  -78.3178 C.3       3 UNK        -0.1996 
     59 N         -80.2244   26.9146  -76.8175 N.am      3 UNK        -0.4254 
     60 C         -79.0793   27.4882  -76.4162 C.2       2 UNK         0.5004 
     61 O         -77.9907   27.2730  -76.9429 O.2       2 UNK        -0.5226 
     62 CA        -79.1486   28.4570  -75.2205 C.3       2 UNK         0.0269 
     63 CB        -79.2567   29.9045  -75.7264 C.3       2 UNK        -0.1926 
     64 N         -80.2552   28.1995  -74.2931 N.am      2 UNK        -0.4687 
     65 C         -80.4577   27.0575  -73.6215 C.2       1 UNK         0.5165 
     66 O         -79.7190   26.0724  -73.7104 O.2       1 UNK        -0.5079 
     67 H67       -83.3870   23.0089  -74.3157 H         1 UNK         0.0900 
     68 H68       -84.4238   23.6934  -73.0590 H         1 UNK         0.0900 
     69 H69       -82.8048   23.0989  -72.6484 H         1 UNK         0.0900 
     70 H70       -82.2440   25.2301  -71.7523 H         1 UNK         0.2959 
     71 H71       -82.4728   27.6281  -73.2500 H         1 UNK         0.1079 
     72 H72       -81.0522   28.6332  -71.4425 H         1 UNK         0.0837 
     73 H73       -82.4760   27.8233  -70.8762 H         1 UNK         0.0837 
     74 H74       -80.1936   28.7513  -69.0766 H         1 UNK         0.0685 
     75 H75       -79.2456   27.4853  -68.3438 H         1 UNK         0.0685 
     76 H76       -77.2094   26.5609  -69.5619 H         1 UNK         0.1434 
     77 H77       -75.1674   29.3517  -72.0700 H         1 UNK         0.1329 
     78 H78       -79.1848   30.1609  -70.7948 H         1 UNK         0.1335 
     79 H79       -77.5803   32.0182  -71.5627 H         1 UNK         0.0680 
     80 H80       -77.9305   31.2104  -73.0647 H         1 UNK         0.0680 
     81 H81       -75.1415   32.1645  -75.2072 H         1 UNK         0.1032 
     82 H82       -76.6603   31.3630  -74.9938 H         1 UNK         0.1032 
     83 H83       -75.5800   29.2177  -74.5691 H         1 UNK         0.0461 
     84 H84       -73.9320   28.9289  -78.0810 H         1 UNK         0.3453 
     85 H85       -73.1212   28.7804  -76.5416 H         1 UNK         0.3453 
     86 H86       -73.5216   28.9367  -73.8395 H         1 UNK         0.2984 
     87 H87       -70.4193   30.4135  -74.4893 H         1 UNK         0.0554 
     88 H88       -70.0990   30.4790  -72.0319 H         1 UNK         0.0847 
     89 H89       -71.8438   30.4004  -71.7724 H         1 UNK         0.0847 
     90 H90       -71.1246   31.8110  -72.5337 H         1 UNK         0.0847 
     91 H91       -70.9277   28.2687  -72.7993 H         1 UNK         0.3141 
     92 H92       -69.8740   26.1014  -74.3215 H         1 UNK         0.0743 
     93 H93       -71.0534   26.3902  -72.1729 H         1 UNK         0.0784 
     94 H94       -72.6151   26.1158  -72.9440 H         1 UNK         0.0784 
     95 H95       -71.4501   24.8076  -72.8032 H         1 UNK         0.0784 
     96 H96       -72.5603   25.5064  -75.4880 H         1 UNK         0.3213 
     97 H97       -71.2541   23.9232  -78.2355 H         1 UNK         0.0855 
     98 H98       -70.6474   21.9387  -76.8558 H         1 UNK         0.0814 
     99 H99       -72.2040   21.6983  -77.6293 H         1 UNK         0.0814 
    100 H100      -72.1221   22.1106  -75.9152 H         1 UNK         0.0814 
    101 H101      -73.7904   23.6944  -76.8002 H         1 UNK         0.3105 
    102 H102      -75.1177   26.7376  -77.8095 H         1 UNK         0.0547 
    103 H103      -75.4009   25.5538  -80.0045 H         1 UNK         0.0837 
    104 H104      -75.8715   24.0894  -79.1502 H         1 UNK         0.0837 
    105 H105      -76.8703   25.5398  -79.0462 H         1 UNK         0.0837 
    106 H106      -76.5127   24.5654  -76.7788 H         1 UNK         0.3020 
    107 H107      -75.6805   23.9337  -73.9094 H         1 UNK         0.1245 
    108 H108      -77.3420   25.7804  -72.6178 H         1 UNK         0.0781 
    109 H109      -76.1636   26.8322  -73.3248 H         1 UNK         0.0781 
    110 H110      -74.0414   27.4159  -71.4524 H         1 UNK         0.0836 
    111 H111      -74.4648   26.7860  -69.8811 H         1 UNK         0.0836 
    112 H112      -78.2993   25.0458  -74.5122 H         1 UNK         0.3022 
    113 H113      -79.3160   22.1606  -76.3520 H         1 UNK         0.0747 
    114 H114      -81.1118   22.2325  -74.6716 H         1 UNK         0.0793 
    115 H115      -79.6416   21.6355  -73.9256 H         1 UNK         0.0793 
    116 H116      -80.1560   23.2901  -73.6279 H         1 UNK         0.0793 
    117 H117      -80.4158   24.7705  -75.5733 H         1 UNK         0.3047 
    118 H118      -79.7423   26.2751  -78.7374 H         1 UNK         0.0822 
    119 H119      -82.1920   26.6844  -78.6781 H         1 UNK         0.0807 
    120 H120      -82.4063   25.3878  -77.5021 H         1 UNK         0.0807 
    121 H121      -81.8588   25.0212  -79.1312 H         1 UNK         0.0807 
    122 H122      -81.0777   27.1392  -76.3257 H         1 UNK         0.2946 
    123 H123      -78.2159   28.3490  -74.6615 H         1 UNK         0.1144 
    124 H124      -79.2351   30.6207  -74.9064 H         1 UNK         0.0793 
    125 H125      -80.1784   30.0670  -76.2865 H         1 UNK         0.0793 
    126 H126      -78.4288   30.1484  -76.3927 H         1 UNK         0.0793 
    127 H127      -80.9133   28.9560  -74.1708 H         1 UNK         0.2896 
@<TRIPOS>BOND
     1    1    2 1    
     2    1   67 1    
     3    1   68 1    
     4    1   69 1    
     5    2    3 2    
     6    2    4 am   BACKBONE|DICT|INTERRES
     7    4    5 1    
     8    4   70 1    
     9    5    6 1    
    10    5   65 1    
    11    5   71 1    
    12    6    7 1    
    13    6   72 1    
    14    6   73 1    
    15    7    8 1    
    16    8    9 1    
    17    8   74 1    
    18    8   75 1    
    19    9   10 ar   
    20    9   14 ar   
    21   10   11 ar   
    22   10   76 1    
    23   11   12 ar   
    24   11   48 1    
    25   12   13 ar   
    26   12   77 1    
    27   13   14 ar   
    28   13   15 1    
    29   14   78 1    
    30   15   16 1    
    31   15   79 1    
    32   15   80 1    
    33   16   17 1    
    34   17   18 1    
    35   17   81 1    
    36   17   82 1    
    37   18   19 1    
    38   18   22 1    
    39   18   83 1    
    40   19   20 am   BACKBONE|DICT|INTERRES
    41   19   21 2    
    42   20   84 1    
    43   20   85 1    
    44   22   23 am   BACKBONE|DICT|INTERRES
    45   22   86 1    
    46   23   24 2    
    47   23   25 1    
    48   25   26 1    
    49   25   27 1    
    50   25   87 1    
    51   26   88 1    
    52   26   89 1    
    53   26   90 1    
    54   27   28 am   BACKBONE|DICT|INTERRES
    55   27   91 1    
    56   28   29 2    
    57   28   30 1    
    58   30   31 1    
    59   30   32 1    
    60   30   92 1    
    61   31   93 1    
    62   31   94 1    
    63   31   95 1    
    64   32   33 am   BACKBONE|DICT|INTERRES
    65   32   96 1    
    66   33   34 2    
    67   33   35 1    
    68   35   36 1    
    69   35   37 1    
    70   35   97 1    
    71   36   98 1    
    72   36   99 1    
    73   36  100 1    
    74   37   38 am   BACKBONE|DICT|INTERRES
    75   37  101 1    
    76   38   39 2    
    77   38   40 1    
    78   40   41 1    
    79   40   42 1    
    80   40  102 1    
    81   41  103 1    
    82   41  104 1    
    83   41  105 1    
    84   42   43 am   BACKBONE|DICT|INTERRES
    85   42  106 1    
    86   43   44 2    
    87   43   45 1    
    88   45   46 1    
    89   45   49 1    
    90   45  107 1    
    91   46   47 1    
    92   46  108 1    
    93   46  109 1    
    94   47   48 1    
    95   48  110 1    
    96   48  111 1    
    97   49   50 am   BACKBONE|DICT|INTERRES
    98   49  112 1    
    99   50   51 2    
   100   50   52 1    
   101   52   53 1    
   102   52   54 1    
   103   52  113 1    
   104   53  114 1    
   105   53  115 1    
   106   53  116 1    
   107   54   55 am   BACKBONE|DICT|INTERRES
   108   54  117 1    
   109   55   56 2    
   110   55   57 1    
   111   57   58 1    
   112   57   59 1    
   113   57  118 1    
   114   58  119 1    
   115   58  120 1    
   116   58  121 1    
   117   59   60 am   BACKBONE|DICT|INTERRES
   118   59  122 1    
   119   60   61 2    
   120   60   62 1    
   121   62   63 1    
   122   62   64 1    
   123   62  123 1    
   124   63  124 1    
   125   63  125 1    
   126   63  126 1    
   127   64   65 am   BACKBONE|DICT|INTERRES
   128   64  127 1    
   129   65   66 2    
@<TRIPOS>SUBSTRUCTURE
     1 UNK         1 GROUP             0       ****    0 ROOT    
