@<TRIPOS>MOLECULE
3R135
127   129    1
SMALL
USER_CHARGES


@<TRIPOS>ATOM
      1 CA        -76.8852   25.5855  -72.3835 C.3       0 UNK        -0.1998 
      2 C         -78.2994   25.0364  -72.3013 C.2       0 UNK         0.4909 
      3 O         -78.6116   24.0402  -72.9542 O.2       0 UNK        -0.5240 
      4 N         -79.1565   25.6767  -71.4941 N.am      1 UNK        -0.4739 
      5 CA        -80.5196   25.2248  -71.1868 C.3       1 UNK         0.0864 
      6 C6        -81.1473   26.0275  -70.0170 C.3       11 UNK        -0.0881 
      7 S7        -81.7522   27.7065  -70.4205 S.3       11 UNK        -0.2682 
      8 C8        -80.3270   28.7722  -70.0226 C.3       11 UNK         0.0289 
      9 C9        -79.3515   28.9447  -71.1842 C.ar      11 UNK        -0.0687 
     10 C10       -79.8131   29.2714  -72.4654 C.ar      11 UNK        -0.0823 
     11 C11       -78.9202   29.5099  -73.5156 C.ar      11 UNK        -0.0830 
     12 C12       -77.5446   29.4256  -73.2667 C.ar      11 UNK        -0.1021 
     13 C13       -77.0683   29.1051  -71.9930 C.ar      11 UNK        -0.0753 
     14 C14       -77.9745   28.8590  -70.9575 C.ar      11 UNK        -0.0933 
     15 C15       -75.5718   29.0646  -71.7313 C.3       11 UNK         0.0166 
     16 S16       -74.9414   30.7328  -71.3755 S.3       11 UNK        -0.2615 
     17 C17       -73.1809   30.3932  -71.0401 C.3       11 UNK        -0.0865 
     18 CA        -72.2380   30.9102  -72.1586 C.3       10 UNK         0.0862 
     19 C         -70.7512   30.7805  -71.7094 C.2       10 UNK         0.5551 
     20 N         -69.9515   29.8876  -72.2817 N.am      10 UNK        -0.7319 
     21 O         -70.3177   31.5091  -70.8203 O.2       10 UNK        -0.5018 
     22 N         -72.5404   30.2861  -73.4562 N.am      10 UNK        -0.4509 
     23 C         -72.0629   30.6905  -74.6407 C.2       10 UNK         0.4899 
     24 O         -71.4351   31.7389  -74.7982 O.2       10 UNK        -0.4839 
     25 CA        -72.3187   29.7626  -75.8500 C.3       9 UNK         0.0222 
     26 CB        -71.1923   29.8458  -76.9007 C.3       9 UNK        -0.1966 
     27 N         -72.5763   28.3573  -75.4992 N.am      9 UNK        -0.4218 
     28 C         -71.7898   27.5370  -74.7820 C.2       9 UNK         0.5020 
     29 O         -70.7162   27.8726  -74.2796 O.2       9 UNK        -0.5274 
     30 CA        -72.3090   26.1105  -74.5539 C.3       8 UNK         0.0270 
     31 CB        -73.4227   26.1015  -73.4935 C.3       8 UNK        -0.1976 
     32 N         -72.7980   25.4899  -75.7841 N.am      8 UNK        -0.4313 
     33 C         -72.0175   25.0917  -76.7983 C.2       8 UNK         0.5041 
     34 O         -70.7883   25.1714  -76.7950 O.2       8 UNK        -0.5577 
     35 CA        -72.7293   24.5067  -78.0272 C.3       7 UNK         0.0284 
     36 CB        -73.1755   23.0578  -77.7707 C.3       7 UNK        -0.1958 
     37 N         -73.8807   25.3186  -78.4212 N.am      7 UNK        -0.4454 
     38 C         -73.7940   26.4778  -79.0879 C.2       7 UNK         0.5089 
     39 O         -72.7359   26.9602  -79.4920 O.2       7 UNK        -0.5125 
     40 CA        -75.1110   27.2274  -79.3597 C.3       6 UNK         0.0408 
     41 CB        -75.6431   26.8848  -80.7602 C.3       6 UNK        -0.1791 
     42 N         -76.1571   26.9633  -78.3668 N.am      6 UNK        -0.4762 
     43 C         -76.1112   27.3809  -77.0936 C.2       6 UNK         0.5007 
     44 O         -75.1604   27.9919  -76.6043 O.2       6 UNK        -0.5032 
     45 CA        -77.3047   26.9929  -76.1977 C.3       5 UNK         0.0783 
     46 C46       -78.5805   27.8071  -76.5211 C.3       11 UNK        -0.0857 
     47 S47       -78.4019   29.6108  -76.3096 S.3       11 UNK        -0.2512 
     48 C48       -79.4785   29.9451  -74.8718 C.3       11 UNK         0.0225 
     49 N         -77.5830   25.5499  -76.2178 N.am      5 UNK        -0.4615 
     50 C         -76.7008   24.5760  -75.9451 C.2       4 UNK         0.5053 
     51 O         -75.5183   24.7913  -75.6814 O.2       4 UNK        -0.5105 
     52 CA        -77.2100   23.1259  -75.9788 C.3       4 UNK         0.0263 
     53 CB        -76.4457   22.2184  -74.9960 C.3       4 UNK        -0.1981 
     54 N         -78.6405   23.0599  -75.6744 N.am      4 UNK        -0.4224 
     55 C         -79.5754   22.5473  -76.4849 C.2       3 UNK         0.4895 
     56 O         -79.3353   22.0635  -77.5918 O.2       3 UNK        -0.5091 
     57 CA        -81.0316   22.5806  -75.9896 C.3       3 UNK         0.0250 
     58 CB        -81.3357   21.3377  -75.1380 C.3       3 UNK        -0.1996 
     59 N         -81.3881   23.7816  -75.2302 N.am      3 UNK        -0.4254 
     60 C         -81.3617   25.0406  -75.6856 C.2       2 UNK         0.5004 
     61 O         -80.9611   25.3544  -76.8062 O.2       2 UNK        -0.5226 
     62 CA        -81.8332   26.1452  -74.7229 C.3       2 UNK         0.0269 
     63 CB        -83.3712   26.2247  -74.6598 C.3       2 UNK        -0.1926 
     64 N         -81.2267   26.0517  -73.3877 N.am      2 UNK        -0.4687 
     65 C         -81.4342   25.1362  -72.4278 C.2       1 UNK         0.5165 
     66 O         -82.2508   24.2177  -72.5144 O.2       1 UNK        -0.5079 
     67 H67       -76.5510   25.9592  -71.4161 H         1 UNK         0.0900 
     68 H68       -76.8356   26.3989  -73.1021 H         1 UNK         0.0900 
     69 H69       -76.1921   24.8069  -72.7003 H         1 UNK         0.0900 
     70 H70       -78.8600   26.5212  -71.0257 H         1 UNK         0.2959 
     71 H71       -80.4116   24.1962  -70.8344 H         1 UNK         0.1079 
     72 H72       -82.0035   25.4718  -69.6302 H         1 UNK         0.0837 
     73 H73       -80.4488   26.0828  -69.1807 H         1 UNK         0.0837 
     74 H74       -79.8220   28.3904  -69.1341 H         1 UNK         0.0685 
     75 H75       -80.7056   29.7592  -69.7541 H         1 UNK         0.0685 
     76 H76       -80.8765   29.3730  -72.6359 H         1 UNK         0.1434 
     77 H77       -76.8327   29.6445  -74.0503 H         1 UNK         0.1329 
     78 H78       -77.6031   28.6378  -69.9659 H         1 UNK         0.1335 
     79 H79       -75.0537   28.6561  -72.5994 H         1 UNK         0.0680 
     80 H80       -75.3515   28.4018  -70.8929 H         1 UNK         0.0680 
     81 H81       -72.9406   30.8764  -70.0907 H         1 UNK         0.1032 
     82 H82       -73.0300   29.3248  -70.8744 H         1 UNK         0.1032 
     83 H83       -72.4225   31.9802  -72.2736 H         1 UNK         0.0461 
     84 H84       -70.2915   29.2676  -73.0115 H         1 UNK         0.3453 
     85 H85       -68.9932   29.8214  -71.9787 H         1 UNK         0.3453 
     86 H86       -73.0497   29.4178  -73.4244 H         1 UNK         0.2984 
     87 H87       -73.2345   30.1261  -76.3180 H         1 UNK         0.0554 
     88 H88       -71.0798   30.8621  -77.2801 H         1 UNK         0.0847 
     89 H89       -71.4024   29.2041  -77.7569 H         1 UNK         0.0847 
     90 H90       -70.2306   29.5444  -76.4842 H         1 UNK         0.0847 
     91 H91       -73.4626   27.9967  -75.8501 H         1 UNK         0.3141 
     92 H92       -71.4780   25.5100  -74.1776 H         1 UNK         0.0743 
     93 H93       -73.0906   26.5730  -72.5676 H         1 UNK         0.0784 
     94 H94       -74.3111   26.6325  -73.8369 H         1 UNK         0.0784 
     95 H95       -73.7210   25.0819  -73.2489 H         1 UNK         0.0784 
     96 H96       -73.8034   25.3308  -75.8451 H         1 UNK         0.3213 
     97 H97       -72.0139   24.4950  -78.8529 H         1 UNK         0.0855 
     98 H98       -73.8991   22.9915  -76.9589 H         1 UNK         0.0814 
     99 H99       -72.3243   22.4324  -77.4984 H         1 UNK         0.0814 
    100 H100      -73.6277   22.6186  -78.6601 H         1 UNK         0.0814 
    101 H101      -74.7885   25.0216  -78.0954 H         1 UNK         0.3105 
    102 H102      -74.8881   28.2964  -79.3343 H         1 UNK         0.0547 
    103 H103      -75.9044   25.8295  -80.8477 H         1 UNK         0.0837 
    104 H104      -76.5279   27.4728  -81.0045 H         1 UNK         0.0837 
    105 H105      -74.8944   27.0986  -81.5244 H         1 UNK         0.0837 
    106 H106      -76.9679   26.4483  -78.6796 H         1 UNK         0.3020 
    107 H107      -77.0080   27.2400  -75.1787 H         1 UNK         0.1245 
    108 H108      -79.3879   27.4685  -75.8756 H         1 UNK         0.0781 
    109 H109      -78.9160   27.6124  -77.5414 H         1 UNK         0.0781 
    110 H110      -79.6552   31.0205  -74.8287 H         1 UNK         0.0836 
    111 H111      -80.4526   29.4862  -75.0474 H         1 UNK         0.0836 
    112 H112      -78.5290   25.2792  -76.4513 H         1 UNK         0.3022 
    113 H113      -77.0145   22.7631  -76.9896 H         1 UNK         0.0747 
    114 H114      -75.3794   22.1941  -75.2216 H         1 UNK         0.0793 
    115 H115      -76.8074   21.1914  -75.0454 H         1 UNK         0.0793 
    116 H116      -76.5524   22.5604  -73.9663 H         1 UNK         0.0793 
    117 H117      -78.9084   23.4225  -74.7610 H         1 UNK         0.3047 
    118 H118      -81.6740   22.5547  -76.8723 H         1 UNK         0.0822 
    119 H119      -81.1003   20.4222  -75.6828 H         1 UNK         0.0807 
    120 H120      -82.3908   21.2900  -74.8675 H         1 UNK         0.0807 
    121 H121      -80.7523   21.3291  -74.2161 H         1 UNK         0.0807 
    122 H122      -81.7199   23.6459  -74.2795 H         1 UNK         0.2946 
    123 H123      -81.4932   27.0935  -75.1388 H         1 UNK         0.1144 
    124 H124      -83.7877   26.4278  -75.6472 H         1 UNK         0.0793 
    125 H125      -83.6988   27.0270  -73.9985 H         1 UNK         0.0793 
    126 H126      -83.8209   25.2960  -74.3080 H         1 UNK         0.0793 
    127 H127      -80.5069   26.7339  -73.1931 H         1 UNK         0.2896 
@<TRIPOS>BOND
     1    1    2 1    
     2    1   67 1    
     3    1   68 1    
     4    1   69 1    
     5    2    3 2    
     6    2    4 am   BACKBONE|DICT|INTERRES
     7    4    5 1    
     8    4   70 1    
     9    5    6 1    
    10    5   65 1    
    11    5   71 1    
    12    6    7 1    
    13    6   72 1    
    14    6   73 1    
    15    7    8 1    
    16    8    9 1    
    17    8   74 1    
    18    8   75 1    
    19    9   10 ar   
    20    9   14 ar   
    21   10   11 ar   
    22   10   76 1    
    23   11   12 ar   
    24   11   48 1    
    25   12   13 ar   
    26   12   77 1    
    27   13   14 ar   
    28   13   15 1    
    29   14   78 1    
    30   15   16 1    
    31   15   79 1    
    32   15   80 1    
    33   16   17 1    
    34   17   18 1    
    35   17   81 1    
    36   17   82 1    
    37   18   19 1    
    38   18   22 1    
    39   18   83 1    
    40   19   20 am   BACKBONE|DICT|INTERRES
    41   19   21 2    
    42   20   84 1    
    43   20   85 1    
    44   22   23 am   BACKBONE|DICT|INTERRES
    45   22   86 1    
    46   23   24 2    
    47   23   25 1    
    48   25   26 1    
    49   25   27 1    
    50   25   87 1    
    51   26   88 1    
    52   26   89 1    
    53   26   90 1    
    54   27   28 am   BACKBONE|DICT|INTERRES
    55   27   91 1    
    56   28   29 2    
    57   28   30 1    
    58   30   31 1    
    59   30   32 1    
    60   30   92 1    
    61   31   93 1    
    62   31   94 1    
    63   31   95 1    
    64   32   33 am   BACKBONE|DICT|INTERRES
    65   32   96 1    
    66   33   34 2    
    67   33   35 1    
    68   35   36 1    
    69   35   37 1    
    70   35   97 1    
    71   36   98 1    
    72   36   99 1    
    73   36  100 1    
    74   37   38 am   BACKBONE|DICT|INTERRES
    75   37  101 1    
    76   38   39 2    
    77   38   40 1    
    78   40   41 1    
    79   40   42 1    
    80   40  102 1    
    81   41  103 1    
    82   41  104 1    
    83   41  105 1    
    84   42   43 am   BACKBONE|DICT|INTERRES
    85   42  106 1    
    86   43   44 2    
    87   43   45 1    
    88   45   46 1    
    89   45   49 1    
    90   45  107 1    
    91   46   47 1    
    92   46  108 1    
    93   46  109 1    
    94   47   48 1    
    95   48  110 1    
    96   48  111 1    
    97   49   50 am   BACKBONE|DICT|INTERRES
    98   49  112 1    
    99   50   51 2    
   100   50   52 1    
   101   52   53 1    
   102   52   54 1    
   103   52  113 1    
   104   53  114 1    
   105   53  115 1    
   106   53  116 1    
   107   54   55 am   BACKBONE|DICT|INTERRES
   108   54  117 1    
   109   55   56 2    
   110   55   57 1    
   111   57   58 1    
   112   57   59 1    
   113   57  118 1    
   114   58  119 1    
   115   58  120 1    
   116   58  121 1    
   117   59   60 am   BACKBONE|DICT|INTERRES
   118   59  122 1    
   119   60   61 2    
   120   60   62 1    
   121   62   63 1    
   122   62   64 1    
   123   62  123 1    
   124   63  124 1    
   125   63  125 1    
   126   63  126 1    
   127   64   65 am   BACKBONE|DICT|INTERRES
   128   64  127 1    
   129   65   66 2    
@<TRIPOS>SUBSTRUCTURE
     1 UNK         1 GROUP             0       ****    0 ROOT    
