@<TRIPOS>MOLECULE
3R135
127   129    1
SMALL
USER_CHARGES


@<TRIPOS>ATOM
      1 CA        -81.8991   24.2899  -71.5825 C.3       0 UNK        -0.1998 
      2 C         -81.9264   25.1425  -72.8418 C.2       0 UNK         0.4909 
      3 O         -82.7348   24.8899  -73.7361 O.2       0 UNK        -0.5240 
      4 N         -81.0595   26.1604  -72.9165 N.am      1 UNK        -0.4739 
      5 CA        -80.9761   27.0914  -74.0468 C.3       1 UNK         0.0864 
      6 C6        -80.1534   28.3608  -73.7159 C.3       11 UNK        -0.0881 
      7 S7        -80.8189   29.2719  -72.2793 S.3       11 UNK        -0.2682 
      8 C8        -79.3497   30.1912  -71.6918 C.3       11 UNK         0.0289 
      9 C9        -78.1431   29.3158  -71.3551 C.ar      11 UNK        -0.0687 
     10 C10       -78.2993   28.0361  -70.8113 C.ar      11 UNK        -0.0823 
     11 C11       -77.1916   27.2193  -70.5773 C.ar      11 UNK        -0.0830 
     12 C12       -75.9093   27.7055  -70.8418 C.ar      11 UNK        -0.1021 
     13 C13       -75.7330   29.0006  -71.3383 C.ar      11 UNK        -0.0753 
     14 C14       -76.8525   29.7973  -71.5990 C.ar      11 UNK        -0.0933 
     15 C15       -74.3302   29.5319  -71.5871 C.3       11 UNK         0.0166 
     16 S16       -73.8310   29.2900  -73.3161 S.3       11 UNK        -0.2615 
     17 C17       -74.2621   30.8978  -74.0789 C.3       11 UNK        -0.0865 
     18 CA        -73.0090   31.7090  -74.5011 C.3       10 UNK         0.0862 
     19 C         -72.2382   32.2420  -73.2543 C.2       10 UNK         0.5551 
     20 N         -71.1155   31.6467  -72.8652 N.am      10 UNK        -0.7319 
     21 O         -72.6703   33.2122  -72.6369 O.2       10 UNK        -0.5018 
     22 N         -72.1956   30.9389  -75.4515 N.am      10 UNK        -0.4509 
     23 C         -71.1021   31.3740  -76.0876 C.2       10 UNK         0.4899 
     24 O         -70.7672   32.5589  -76.1293 O.2       10 UNK        -0.4839 
     25 CA        -70.2249   30.3091  -76.7832 C.3       9 UNK         0.0222 
     26 CB        -68.7216   30.6292  -76.6485 C.3       9 UNK        -0.1966 
     27 N         -70.4868   28.9232  -76.3615 N.am      9 UNK        -0.4218 
     28 C         -70.4271   28.3930  -75.1296 C.2       9 UNK         0.5020 
     29 O         -70.1169   29.0415  -74.1275 O.2       9 UNK        -0.5274 
     30 CA        -70.8091   26.8991  -74.9979 C.3       8 UNK         0.0270 
     31 CB        -71.0237   26.4701  -73.5341 C.3       8 UNK        -0.1976 
     32 N         -71.9996   26.5257  -75.7756 N.am      8 UNK        -0.4313 
     33 C         -72.0465   26.3721  -77.1077 C.2       8 UNK         0.5041 
     34 O         -71.0677   26.5427  -77.8357 O.2       8 UNK        -0.5577 
     35 CA        -73.3930   26.0026  -77.7577 C.3       7 UNK         0.0284 
     36 CB        -73.4083   24.5147  -78.1443 C.3       7 UNK        -0.1958 
     37 N         -74.5694   26.2911  -76.9358 N.am      7 UNK        -0.4454 
     38 C         -74.9676   27.5026  -76.5235 C.2       7 UNK         0.5089 
     39 O         -74.3846   28.5474  -76.8148 O.2       7 UNK        -0.5125 
     40 CA        -76.2366   27.5580  -75.6455 C.3       6 UNK         0.0408 
     41 CB        -77.3917   28.1333  -76.4750 C.3       6 UNK        -0.1791 
     42 N         -76.6271   26.2694  -75.0388 N.am      6 UNK        -0.4762 
     43 C         -75.8636   25.6016  -74.1558 C.2       6 UNK         0.5007 
     44 O         -74.7552   26.0013  -73.7967 O.2       6 UNK        -0.5032 
     45 CA        -76.3236   24.2235  -73.6486 C.3       5 UNK         0.0783 
     46 C46       -76.3890   24.1276  -72.0977 C.3       11 UNK        -0.0857 
     47 S47       -77.9642   24.6908  -71.3594 S.3       11 UNK        -0.2512 
     48 C48       -77.3979   25.8127  -70.0436 C.3       11 UNK         0.0225 
     49 N         -77.5284   23.6802  -74.2956 N.am      5 UNK        -0.4615 
     50 C         -77.6509   22.3738  -74.5669 C.2       4 UNK         0.5053 
     51 O         -76.6916   21.6048  -74.6457 O.2       4 UNK        -0.5105 
     52 CA        -79.0610   21.7820  -74.6823 C.3       4 UNK         0.0263 
     53 CB        -79.7023   21.6613  -73.2885 C.3       4 UNK        -0.1981 
     54 N         -79.9650   22.5020  -75.5840 N.am      4 UNK        -0.4224 
     55 C         -80.8862   21.8724  -76.3356 C.2       3 UNK         0.4895 
     56 O         -80.9728   20.6453  -76.4128 O.2       3 UNK        -0.5091 
     57 CA        -81.9191   22.7083  -77.1151 C.3       3 UNK         0.0250 
     58 CB        -83.3256   22.5134  -76.5230 C.3       3 UNK        -0.1996 
     59 N         -81.6195   24.1361  -77.1451 N.am      3 UNK        -0.4254 
     60 C         -80.7219   24.7087  -77.9559 C.2       2 UNK         0.5004 
     61 O         -80.0803   24.0953  -78.8089 O.2       2 UNK        -0.5226 
     62 CA        -80.4830   26.2180  -77.7761 C.3       2 UNK         0.0269 
     63 CB        -81.1795   27.0124  -78.8927 C.3       2 UNK        -0.1926 
     64 N         -80.9014   26.7543  -76.4733 N.am      2 UNK        -0.4687 
     65 C         -80.3988   26.3846  -75.2872 C.2       1 UNK         0.5165 
     66 O         -79.5076   25.5378  -75.1581 O.2       1 UNK        -0.5079 
     67 H67       -80.9813   24.4347  -71.0135 H         1 UNK         0.0900 
     68 H68       -81.9780   23.2338  -71.8378 H         1 UNK         0.0900 
     69 H69       -82.7421   24.5459  -70.9417 H         1 UNK         0.0900 
     70 H70       -80.3903   26.3080  -72.1758 H         1 UNK         0.2959 
     71 H71       -81.9958   27.4051  -74.2826 H         1 UNK         0.1079 
     72 H72       -80.1512   29.0486  -74.5636 H         1 UNK         0.0837 
     73 H73       -79.1106   28.0935  -73.5367 H         1 UNK         0.0837 
     74 H74       -79.6258   30.7598  -70.8032 H         1 UNK         0.0685 
     75 H75       -79.0811   30.9215  -72.4568 H         1 UNK         0.0685 
     76 H76       -79.2882   27.6571  -70.5963 H         1 UNK         0.1434 
     77 H77       -75.0472   27.0773  -70.6635 H         1 UNK         0.1329 
     78 H78       -76.7180   30.7924  -71.9990 H         1 UNK         0.1335 
     79 H79       -73.6167   29.0089  -70.9485 H         1 UNK         0.0680 
     80 H80       -74.2625   30.5851  -71.3108 H         1 UNK         0.0680 
     81 H81       -74.8771   30.6951  -74.9570 H         1 UNK         0.1032 
     82 H82       -74.8952   31.4844  -73.4118 H         1 UNK         0.1032 
     83 H83       -73.3584   32.5911  -75.0406 H         1 UNK         0.0461 
     84 H84       -70.6200   31.9960  -72.0612 H         1 UNK         0.3453 
     85 H85       -70.7831   30.8178  -73.3473 H         1 UNK         0.3453 
     86 H86       -72.4005   29.9502  -75.4817 H         1 UNK         0.2984 
     87 H87       -70.4812   30.3538  -77.8424 H         1 UNK         0.0554 
     88 H88       -68.1098   29.8887  -77.1636 H         1 UNK         0.0847 
     89 H89       -68.4078   30.6561  -75.6044 H         1 UNK         0.0847 
     90 H90       -68.4840   31.6004  -77.0841 H         1 UNK         0.0847 
     91 H91       -70.7329   28.2745  -77.1063 H         1 UNK         0.3141 
     92 H92       -69.9609   26.3300  -75.3841 H         1 UNK         0.0743 
     93 H93       -70.1374   26.6694  -72.9302 H         1 UNK         0.0784 
     94 H94       -71.8580   27.0033  -73.0770 H         1 UNK         0.0784 
     95 H95       -71.2298   25.4023  -73.4594 H         1 UNK         0.0784 
     96 H96       -72.8597   26.4157  -75.2516 H         1 UNK         0.3213 
     97 H97       -73.4794   26.5954  -78.6708 H         1 UNK         0.0855 
     98 H98       -73.3503   23.8686  -77.2673 H         1 UNK         0.0814 
     99 H99       -72.5605   24.2691  -78.7857 H         1 UNK         0.0814 
    100 H100      -74.3124   24.2553  -78.6955 H         1 UNK         0.0814 
    101 H101      -75.1263   25.5005  -76.6473 H         1 UNK         0.3105 
    102 H102      -76.0425   28.2516  -74.8267 H         1 UNK         0.0547 
    103 H103      -78.3014   28.2317  -75.8904 H         1 UNK         0.0837 
    104 H104      -77.1442   29.1306  -76.8416 H         1 UNK         0.0837 
    105 H105      -77.5987   27.5165  -77.3475 H         1 UNK         0.0837 
    106 H106      -77.5376   25.8954  -75.2840 H         1 UNK         0.3020 
    107 H107      -75.4770   23.5986  -73.9431 H         1 UNK         0.1245 
    108 H108      -75.5489   24.6502  -71.6366 H         1 UNK         0.0781 
    109 H109      -76.2658   23.0837  -71.8057 H         1 UNK         0.0781 
    110 H110      -76.4886   25.4265  -69.5806 H         1 UNK         0.0836 
    111 H111      -78.1510   25.8342  -69.2544 H         1 UNK         0.0836 
    112 H112      -78.3485   24.2787  -74.2888 H         1 UNK         0.3022 
    113 H113      -78.9138   20.7677  -75.0602 H         1 UNK         0.0747 
    114 H114      -80.6611   21.1446  -73.3318 H         1 UNK         0.0793 
    115 H115      -79.0606   21.0983  -72.6091 H         1 UNK         0.0793 
    116 H116      -79.8659   22.6411  -72.8413 H         1 UNK         0.0793 
    117 H117      -79.9188   23.5147  -75.5841 H         1 UNK         0.3047 
    118 H118      -81.9297   22.3324  -78.1406 H         1 UNK         0.0822 
    119 H119      -83.6131   21.4610  -76.5324 H         1 UNK         0.0807 
    120 H120      -84.0774   23.0567  -77.0957 H         1 UNK         0.0807 
    121 H121      -83.3786   22.8553  -75.4886 H         1 UNK         0.0807 
    122 H122      -82.0918   24.7134  -76.4630 H         1 UNK         0.2946 
    123 H123      -79.4082   26.3646  -77.8734 H         1 UNK         0.1144 
    124 H124      -80.8718   26.6564  -79.8772 H         1 UNK         0.0793 
    125 H125      -80.9284   28.0721  -78.8424 H         1 UNK         0.0793 
    126 H126      -82.2648   26.9195  -78.8376 H         1 UNK         0.0793 
    127 H127      -81.6278   27.4564  -76.4961 H         1 UNK         0.2896 
@<TRIPOS>BOND
     1    1    2 1    
     2    1   67 1    
     3    1   68 1    
     4    1   69 1    
     5    2    3 2    
     6    2    4 am   BACKBONE|DICT|INTERRES
     7    4    5 1    
     8    4   70 1    
     9    5    6 1    
    10    5   65 1    
    11    5   71 1    
    12    6    7 1    
    13    6   72 1    
    14    6   73 1    
    15    7    8 1    
    16    8    9 1    
    17    8   74 1    
    18    8   75 1    
    19    9   10 ar   
    20    9   14 ar   
    21   10   11 ar   
    22   10   76 1    
    23   11   12 ar   
    24   11   48 1    
    25   12   13 ar   
    26   12   77 1    
    27   13   14 ar   
    28   13   15 1    
    29   14   78 1    
    30   15   16 1    
    31   15   79 1    
    32   15   80 1    
    33   16   17 1    
    34   17   18 1    
    35   17   81 1    
    36   17   82 1    
    37   18   19 1    
    38   18   22 1    
    39   18   83 1    
    40   19   20 am   BACKBONE|DICT|INTERRES
    41   19   21 2    
    42   20   84 1    
    43   20   85 1    
    44   22   23 am   BACKBONE|DICT|INTERRES
    45   22   86 1    
    46   23   24 2    
    47   23   25 1    
    48   25   26 1    
    49   25   27 1    
    50   25   87 1    
    51   26   88 1    
    52   26   89 1    
    53   26   90 1    
    54   27   28 am   BACKBONE|DICT|INTERRES
    55   27   91 1    
    56   28   29 2    
    57   28   30 1    
    58   30   31 1    
    59   30   32 1    
    60   30   92 1    
    61   31   93 1    
    62   31   94 1    
    63   31   95 1    
    64   32   33 am   BACKBONE|DICT|INTERRES
    65   32   96 1    
    66   33   34 2    
    67   33   35 1    
    68   35   36 1    
    69   35   37 1    
    70   35   97 1    
    71   36   98 1    
    72   36   99 1    
    73   36  100 1    
    74   37   38 am   BACKBONE|DICT|INTERRES
    75   37  101 1    
    76   38   39 2    
    77   38   40 1    
    78   40   41 1    
    79   40   42 1    
    80   40  102 1    
    81   41  103 1    
    82   41  104 1    
    83   41  105 1    
    84   42   43 am   BACKBONE|DICT|INTERRES
    85   42  106 1    
    86   43   44 2    
    87   43   45 1    
    88   45   46 1    
    89   45   49 1    
    90   45  107 1    
    91   46   47 1    
    92   46  108 1    
    93   46  109 1    
    94   47   48 1    
    95   48  110 1    
    96   48  111 1    
    97   49   50 am   BACKBONE|DICT|INTERRES
    98   49  112 1    
    99   50   51 2    
   100   50   52 1    
   101   52   53 1    
   102   52   54 1    
   103   52  113 1    
   104   53  114 1    
   105   53  115 1    
   106   53  116 1    
   107   54   55 am   BACKBONE|DICT|INTERRES
   108   54  117 1    
   109   55   56 2    
   110   55   57 1    
   111   57   58 1    
   112   57   59 1    
   113   57  118 1    
   114   58  119 1    
   115   58  120 1    
   116   58  121 1    
   117   59   60 am   BACKBONE|DICT|INTERRES
   118   59  122 1    
   119   60   61 2    
   120   60   62 1    
   121   62   63 1    
   122   62   64 1    
   123   62  123 1    
   124   63  124 1    
   125   63  125 1    
   126   63  126 1    
   127   64   65 am   BACKBONE|DICT|INTERRES
   128   64  127 1    
   129   65   66 2    
@<TRIPOS>SUBSTRUCTURE
     1 UNK         1 GROUP             0       ****    0 ROOT    
