@<TRIPOS>MOLECULE
3R135
127   129    1
SMALL
USER_CHARGES


@<TRIPOS>ATOM
      1 CA        -83.5732   27.1212  -74.4301 C.3       0 UNK        -0.1998 
      2 C         -82.2200   26.4284  -74.3791 C.2       0 UNK         0.4909 
      3 O         -81.6076   26.2080  -75.4231 O.2       0 UNK        -0.5240 
      4 N         -81.7475   26.0912  -73.1727 N.am      1 UNK        -0.4739 
      5 CA        -80.4857   25.3825  -72.9313 C.3       1 UNK         0.0864 
      6 C6        -80.0840   25.4310  -71.4364 C.3       11 UNK        -0.0881 
      7 S7        -79.6236   27.1178  -70.9272 S.3       11 UNK        -0.2682 
      8 C8        -77.8486   27.0542  -71.3142 C.3       11 UNK         0.0289 
      9 C9        -77.2126   28.4331  -71.3512 C.ar      11 UNK        -0.0687 
     10 C10       -77.5935   29.3513  -72.3331 C.ar      11 UNK        -0.0823 
     11 C11       -76.9439   30.5824  -72.4437 C.ar      11 UNK        -0.0830 
     12 C12       -75.9364   30.9134  -71.5323 C.ar      11 UNK        -0.1021 
     13 C13       -75.5565   30.0086  -70.5367 C.ar      11 UNK        -0.0753 
     14 C14       -76.1972   28.7689  -70.4518 C.ar      11 UNK        -0.0933 
     15 C15       -74.4453   30.3564  -69.5590 C.3       11 UNK         0.0166 
     16 S16       -72.8157   29.8474  -70.1923 S.3       11 UNK        -0.2615 
     17 C17       -72.3428   31.2687  -71.2379 C.3       11 UNK        -0.0865 
     18 CA        -72.4877   31.0241  -72.7647 C.3       10 UNK         0.0862 
     19 C         -72.1212   32.3285  -73.5340 C.2       10 UNK         0.5551 
     20 N         -70.9884   32.3987  -74.2227 N.am      10 UNK        -0.7319 
     21 O         -72.8756   33.2971  -73.4907 O.2       10 UNK        -0.5018 
     22 N         -71.7865   29.8008  -73.1960 N.am      10 UNK        -0.4509 
     23 C         -71.8388   29.2668  -74.4234 C.2       10 UNK         0.4899 
     24 O         -72.4440   29.7695  -75.3694 O.2       10 UNK        -0.4839 
     25 CA        -71.0926   27.9409  -74.6471 C.3       9 UNK         0.0222 
     26 CB        -69.7432   27.8440  -73.8997 C.3       9 UNK        -0.1966 
     27 N         -71.9708   26.7985  -74.3800 N.am      9 UNK        -0.4218 
     28 C         -72.4789   26.4054  -73.1999 C.2       9 UNK         0.5020 
     29 O         -72.1269   26.8728  -72.1168 O.2       9 UNK        -0.5274 
     30 CA        -73.5686   25.3142  -73.2166 C.3       8 UNK         0.0270 
     31 CB        -74.7486   25.7017  -72.3082 C.3       8 UNK        -0.1976 
     32 N         -74.0840   25.0862  -74.5675 N.am      8 UNK        -0.4313 
     33 C         -73.8337   24.0099  -75.3255 C.2       8 UNK         0.5041 
     34 O         -73.1935   23.0329  -74.9359 O.2       8 UNK        -0.5577 
     35 CA        -74.3571   24.0273  -76.7761 C.3       7 UNK         0.0284 
     36 CB        -75.6438   23.1971  -76.9002 C.3       7 UNK        -0.1958 
     37 N         -74.6016   25.3744  -77.2994 N.am      7 UNK        -0.4454 
     38 C         -73.6546   26.2992  -77.5109 C.2       7 UNK         0.5089 
     39 O         -72.4537   26.0971  -77.3330 O.2       7 UNK        -0.5125 
     40 CA        -74.1283   27.7022  -77.9313 C.3       6 UNK         0.0408 
     41 CB        -74.0920   27.8389  -79.4613 C.3       6 UNK        -0.1791 
     42 N         -75.4647   28.0665  -77.4441 N.am      6 UNK        -0.4762 
     43 C         -75.8548   28.0913  -76.1582 C.2       6 UNK         0.5007 
     44 O         -75.1472   27.7281  -75.2190 O.2       6 UNK        -0.5032 
     45 CA        -77.3210   28.4944  -75.8974 C.3       5 UNK         0.0783 
     46 C46       -77.5818   30.0253  -75.9757 C.3       11 UNK        -0.0857 
     47 S47       -76.4077   31.1190  -75.0937 S.3       11 UNK        -0.2512 
     48 C48       -77.3065   31.5411  -73.5656 C.3       11 UNK         0.0225 
     49 N         -78.2090   27.7709  -76.8145 N.am      5 UNK        -0.4615 
     50 C         -78.4549   26.4566  -76.7597 C.2       4 UNK         0.5053 
     51 O         -78.0643   25.7165  -75.8521 O.2       4 UNK        -0.5105 
     52 CA        -79.2083   25.8671  -77.9572 C.3       4 UNK         0.0263 
     53 CB        -78.2487   25.6503  -79.1447 C.3       4 UNK        -0.1981 
     54 N         -79.8045   24.6026  -77.5484 N.am      4 UNK        -0.4224 
     55 C         -80.7655   23.9242  -78.1854 C.2       3 UNK         0.4895 
     56 O         -81.2410   24.2776  -79.2658 O.2       3 UNK        -0.5091 
     57 CA        -81.3308   22.6585  -77.5042 C.3       3 UNK         0.0250 
     58 CB        -81.2370   21.4212  -78.4217 C.3       3 UNK        -0.1996 
     59 N         -80.7807   22.3865  -76.1675 N.am      3 UNK        -0.4254 
     60 C         -79.5422   21.9952  -75.8332 C.2       2 UNK         0.5004 
     61 O         -78.6635   21.7113  -76.6468 O.2       2 UNK        -0.5226 
     62 CA        -79.2239   22.0162  -74.3268 C.3       2 UNK         0.0269 
     63 CB        -77.8015   21.5190  -74.0062 C.3       2 UNK        -0.1926 
     64 N         -79.3819   23.3721  -73.7911 N.am      2 UNK        -0.4687 
     65 C         -80.5463   23.9236  -73.4244 C.2       1 UNK         0.5165 
     66 O         -81.6221   23.3192  -73.4605 O.2       1 UNK        -0.5079 
     67 H67       -84.2748   26.5285  -75.0164 H         1 UNK         0.0900 
     68 H68       -83.9964   27.2635  -73.4360 H         1 UNK         0.0900 
     69 H69       -83.4757   28.0990  -74.9008 H         1 UNK         0.0900 
     70 H70       -82.2986   26.2898  -72.3503 H         1 UNK         0.2959 
     71 H71       -79.7156   25.8854  -73.5213 H         1 UNK         0.1079 
     72 H72       -79.2448   24.7644  -71.2249 H         1 UNK         0.0837 
     73 H73       -80.9044   25.0846  -70.8049 H         1 UNK         0.0837 
     74 H74       -77.3489   26.4126  -70.5866 H         1 UNK         0.0685 
     75 H75       -77.7047   26.5864  -72.2892 H         1 UNK         0.0685 
     76 H76       -78.3835   29.0956  -73.0246 H         1 UNK         0.1434 
     77 H77       -75.4304   31.8658  -71.6128 H         1 UNK         0.1329 
     78 H78       -75.8885   28.0584  -69.6972 H         1 UNK         0.1335 
     79 H79       -74.6208   29.8474  -68.6100 H         1 UNK         0.0680 
     80 H80       -74.4518   31.4231  -69.3305 H         1 UNK         0.0680 
     81 H81       -72.9249   32.1414  -70.9359 H         1 UNK         0.1032 
     82 H82       -71.3061   31.5151  -71.0005 H         1 UNK         0.1032 
     83 H83       -73.5433   30.8449  -72.9740 H         1 UNK         0.0461 
     84 H84       -70.3694   31.6055  -74.2654 H         1 UNK         0.3453 
     85 H85       -70.7598   33.2474  -74.7157 H         1 UNK         0.3453 
     86 H86       -71.3325   29.2719  -72.4645 H         1 UNK         0.2984 
     87 H87       -70.8657   27.8931  -75.7134 H         1 UNK         0.0554 
     88 H88       -69.2127   26.9313  -74.1707 H         1 UNK         0.0847 
     89 H89       -69.8525   27.8494  -72.8156 H         1 UNK         0.0847 
     90 H90       -69.0955   28.6812  -74.1626 H         1 UNK         0.0847 
     91 H91       -72.3218   26.3432  -75.2144 H         1 UNK         0.3141 
     92 H92       -73.1165   24.4031  -72.8200 H         1 UNK         0.0743 
     93 H93       -75.1868   26.6517  -72.6166 H         1 UNK         0.0784 
     94 H94       -75.5321   24.9443  -72.3276 H         1 UNK         0.0784 
     95 H95       -74.4300   25.8126  -71.2710 H         1 UNK         0.0784 
     96 H96       -74.5958   25.8690  -74.9686 H         1 UNK         0.3213 
     97 H97       -73.5903   23.5626  -77.3998 H         1 UNK         0.0855 
     98 H98       -75.4935   22.1823  -76.5291 H         1 UNK         0.0814 
     99 H99       -75.9675   23.1121  -77.9374 H         1 UNK         0.0814 
    100 H100      -76.4635   23.6324  -76.3287 H         1 UNK         0.0814 
    101 H101      -75.5645   25.6411  -77.4399 H         1 UNK         0.3105 
    102 H102      -73.4237   28.4207  -77.5090 H         1 UNK         0.0547 
    103 H103      -74.3189   28.8577  -79.7755 H         1 UNK         0.0837 
    104 H104      -73.1022   27.5967  -79.8511 H         1 UNK         0.0837 
    105 H105      -74.8047   27.1696  -79.9449 H         1 UNK         0.0837 
    106 H106      -76.1269   28.3653  -78.1447 H         1 UNK         0.3020 
    107 H107      -77.5504   28.1587  -74.8858 H         1 UNK         0.1245 
    108 H108      -78.5959   30.2374  -75.6347 H         1 UNK         0.0781 
    109 H109      -77.5603   30.3430  -77.0196 H         1 UNK         0.0781 
    110 H110      -78.3840   31.5460  -73.7349 H         1 UNK         0.0836 
    111 H111      -77.0441   32.5611  -73.2804 H         1 UNK         0.0836 
    112 H112      -78.5886   28.3023  -77.5848 H         1 UNK         0.3022 
    113 H113      -80.0074   26.5551  -78.2408 H         1 UNK         0.0747 
    114 H114      -77.7641   26.5815  -79.4402 H         1 UNK         0.0793 
    115 H115      -77.4640   24.9337  -78.9009 H         1 UNK         0.0793 
    116 H116      -78.7772   25.2758  -80.0213 H         1 UNK         0.0793 
    117 H117      -79.4769   24.2702  -76.6506 H         1 UNK         0.3047 
    118 H118      -82.3903   22.8631  -77.3429 H         1 UNK         0.0822 
    119 H119      -80.2072   21.1968  -78.7007 H         1 UNK         0.0807 
    120 H120      -81.7916   21.5806  -79.3473 H         1 UNK         0.0807 
    121 H121      -81.6568   20.5371  -77.9420 H         1 UNK         0.0807 
    122 H122      -81.3924   22.6353  -75.3958 H         1 UNK         0.2946 
    123 H123      -79.9308   21.3427  -73.8358 H         1 UNK         0.1144 
    124 H124      -77.6393   20.5150  -74.4007 H         1 UNK         0.0793 
    125 H125      -77.0373   22.1666  -74.4361 H         1 UNK         0.0793 
    126 H126      -77.6323   21.4735  -72.9303 H         1 UNK         0.0793 
    127 H127      -78.5492   23.9453  -73.7863 H         1 UNK         0.2896 
@<TRIPOS>BOND
     1    1    2 1    
     2    1   67 1    
     3    1   68 1    
     4    1   69 1    
     5    2    3 2    
     6    2    4 am   BACKBONE|DICT|INTERRES
     7    4    5 1    
     8    4   70 1    
     9    5    6 1    
    10    5   65 1    
    11    5   71 1    
    12    6    7 1    
    13    6   72 1    
    14    6   73 1    
    15    7    8 1    
    16    8    9 1    
    17    8   74 1    
    18    8   75 1    
    19    9   10 ar   
    20    9   14 ar   
    21   10   11 ar   
    22   10   76 1    
    23   11   12 ar   
    24   11   48 1    
    25   12   13 ar   
    26   12   77 1    
    27   13   14 ar   
    28   13   15 1    
    29   14   78 1    
    30   15   16 1    
    31   15   79 1    
    32   15   80 1    
    33   16   17 1    
    34   17   18 1    
    35   17   81 1    
    36   17   82 1    
    37   18   19 1    
    38   18   22 1    
    39   18   83 1    
    40   19   20 am   BACKBONE|DICT|INTERRES
    41   19   21 2    
    42   20   84 1    
    43   20   85 1    
    44   22   23 am   BACKBONE|DICT|INTERRES
    45   22   86 1    
    46   23   24 2    
    47   23   25 1    
    48   25   26 1    
    49   25   27 1    
    50   25   87 1    
    51   26   88 1    
    52   26   89 1    
    53   26   90 1    
    54   27   28 am   BACKBONE|DICT|INTERRES
    55   27   91 1    
    56   28   29 2    
    57   28   30 1    
    58   30   31 1    
    59   30   32 1    
    60   30   92 1    
    61   31   93 1    
    62   31   94 1    
    63   31   95 1    
    64   32   33 am   BACKBONE|DICT|INTERRES
    65   32   96 1    
    66   33   34 2    
    67   33   35 1    
    68   35   36 1    
    69   35   37 1    
    70   35   97 1    
    71   36   98 1    
    72   36   99 1    
    73   36  100 1    
    74   37   38 am   BACKBONE|DICT|INTERRES
    75   37  101 1    
    76   38   39 2    
    77   38   40 1    
    78   40   41 1    
    79   40   42 1    
    80   40  102 1    
    81   41  103 1    
    82   41  104 1    
    83   41  105 1    
    84   42   43 am   BACKBONE|DICT|INTERRES
    85   42  106 1    
    86   43   44 2    
    87   43   45 1    
    88   45   46 1    
    89   45   49 1    
    90   45  107 1    
    91   46   47 1    
    92   46  108 1    
    93   46  109 1    
    94   47   48 1    
    95   48  110 1    
    96   48  111 1    
    97   49   50 am   BACKBONE|DICT|INTERRES
    98   49  112 1    
    99   50   51 2    
   100   50   52 1    
   101   52   53 1    
   102   52   54 1    
   103   52  113 1    
   104   53  114 1    
   105   53  115 1    
   106   53  116 1    
   107   54   55 am   BACKBONE|DICT|INTERRES
   108   54  117 1    
   109   55   56 2    
   110   55   57 1    
   111   57   58 1    
   112   57   59 1    
   113   57  118 1    
   114   58  119 1    
   115   58  120 1    
   116   58  121 1    
   117   59   60 am   BACKBONE|DICT|INTERRES
   118   59  122 1    
   119   60   61 2    
   120   60   62 1    
   121   62   63 1    
   122   62   64 1    
   123   62  123 1    
   124   63  124 1    
   125   63  125 1    
   126   63  126 1    
   127   64   65 am   BACKBONE|DICT|INTERRES
   128   64  127 1    
   129   65   66 2    
@<TRIPOS>SUBSTRUCTURE
     1 UNK         1 GROUP             0       ****    0 ROOT    
