@<TRIPOS>MOLECULE
3R135
127   129    1
SMALL
USER_CHARGES


@<TRIPOS>ATOM
      1 CA        -82.5405   22.4654  -73.3097 C.3       0 UNK        -0.1998 
      2 C         -82.2790   23.9550  -73.4661 C.2       0 UNK         0.4909 
      3 O         -82.4775   24.5045  -74.5505 O.2       0 UNK        -0.5240 
      4 N         -81.8353   24.6130  -72.3864 N.am      1 UNK        -0.4739 
      5 CA        -81.5605   26.0535  -72.3386 C.3       1 UNK         0.0864 
      6 C6        -81.2916   26.5330  -70.8905 C.3       11 UNK        -0.0881 
      7 S7        -81.6833   28.3039  -70.6738 S.3       11 UNK        -0.2682 
      8 C8        -80.3124   28.8839  -69.6248 C.3       11 UNK         0.0289 
      9 C9        -78.9876   28.9530  -70.3724 C.ar      11 UNK        -0.0687 
     10 C10       -77.9949   27.9969  -70.1352 C.ar      11 UNK        -0.0823 
     11 C11       -76.7640   28.0717  -70.7924 C.ar      11 UNK        -0.0830 
     12 C12       -76.5296   29.1260  -71.6789 C.ar      11 UNK        -0.1021 
     13 C13       -77.5145   30.0821  -71.9426 C.ar      11 UNK        -0.0753 
     14 C14       -78.7435   29.9887  -71.2811 C.ar      11 UNK        -0.0933 
     15 C15       -77.2800   31.1895  -72.9668 C.3       11 UNK         0.0166 
     16 S16       -75.5698   31.8281  -72.9637 S.3       11 UNK        -0.2615 
     17 C17       -75.0692   31.5744  -74.7032 C.3       11 UNK        -0.0865 
     18 CA        -74.5914   30.1324  -75.0728 C.3       10 UNK         0.0862 
     19 C         -74.1603   30.0486  -76.5684 C.2       10 UNK         0.5551 
     20 N         -73.0433   29.4212  -76.9164 N.am      10 UNK        -0.7319 
     21 O         -74.8711   30.5436  -77.4394 O.2       10 UNK        -0.5018 
     22 N         -73.6246   29.5307  -74.1363 N.am      10 UNK        -0.4509 
     23 C         -72.4681   30.0673  -73.7279 C.2       10 UNK         0.4899 
     24 O         -72.0724   31.1927  -74.0322 O.2       10 UNK        -0.4839 
     25 CA        -71.5821   29.1829  -72.8341 C.3       9 UNK         0.0222 
     26 CB        -72.0442   29.2733  -71.3701 C.3       9 UNK        -0.1966 
     27 N         -71.5110   27.7732  -73.2393 N.am      9 UNK        -0.4218 
     28 C         -71.1069   27.3178  -74.4350 C.2       9 UNK         0.5020 
     29 O         -70.8381   28.0505  -75.3890 O.2       9 UNK        -0.5274 
     30 CA        -70.9426   25.7974  -74.6002 C.3       8 UNK         0.0270 
     31 CB        -71.4283   24.9591  -73.3990 C.3       8 UNK        -0.1976 
     32 N         -71.6550   25.3695  -75.8005 N.am      8 UNK        -0.4313 
     33 C         -71.1558   24.5980  -76.7750 C.2       8 UNK         0.5041 
     34 O         -69.9983   24.1745  -76.7785 O.2       8 UNK        -0.5577 
     35 CA        -72.0932   24.1899  -77.9312 C.3       7 UNK         0.0284 
     36 CB        -72.2644   22.6613  -77.9758 C.3       7 UNK        -0.1958 
     37 N         -73.4208   24.8000  -77.8435 N.am      7 UNK        -0.4454 
     38 C         -73.7417   26.0198  -78.2938 C.2       7 UNK         0.5089 
     39 O         -72.9713   26.7423  -78.9260 O.2       7 UNK        -0.5125 
     40 CA        -75.1602   26.5238  -77.9645 C.3       6 UNK         0.0408 
     41 CB        -76.0978   26.2784  -79.1564 C.3       6 UNK        -0.1791 
     42 N         -75.7439   25.9254  -76.7566 N.am      6 UNK        -0.4762 
     43 C         -75.2331   25.9986  -75.5172 C.2       6 UNK         0.5007 
     44 O         -74.1989   26.6155  -75.2646 O.2       6 UNK        -0.5032 
     45 CA        -75.9546   25.2395  -74.3768 C.3       5 UNK         0.0783 
     46 C46       -76.2720   26.1540  -73.1728 C.3       11 UNK        -0.0857 
     47 S47       -74.8490   26.4589  -72.0727 S.3       11 UNK        -0.2512 
     48 C48       -75.6998   27.0034  -70.5494 C.3       11 UNK         0.0225 
     49 N         -77.1705   24.5515  -74.8166 N.am      5 UNK        -0.4615 
     50 C         -77.2138   23.4071  -75.5079 C.2       4 UNK         0.5053 
     51 O         -76.2139   22.7928  -75.8787 O.2       4 UNK        -0.5105 
     52 CA        -78.6128   22.8896  -75.8720 C.3       4 UNK         0.0263 
     53 CB        -79.2233   22.1145  -74.6950 C.3       4 UNK        -0.1981 
     54 N         -79.5077   23.9820  -76.2683 N.am      4 UNK        -0.4224 
     55 C         -79.4560   24.5924  -77.4614 C.2       3 UNK         0.4895 
     56 O         -78.7010   24.2502  -78.3709 O.2       3 UNK        -0.5091 
     57 CA        -80.3807   25.8027  -77.6699 C.3       3 UNK         0.0250 
     58 CB        -81.8031   25.3495  -78.0355 C.3       3 UNK        -0.1996 
     59 N         -80.4231   26.6783  -76.4970 N.am      3 UNK        -0.4254 
     60 C         -79.4147   27.4776  -76.1157 C.2       2 UNK         0.5004 
     61 O         -78.3730   27.6106  -76.7536 O.2       2 UNK        -0.5226 
     62 CA        -79.5801   28.2617  -74.8012 C.3       2 UNK         0.0269 
     63 CB        -79.9999   29.7109  -75.0944 C.3       2 UNK        -0.1926 
     64 N         -80.5344   27.6719  -73.8594 N.am      2 UNK        -0.4687 
     65 C         -80.4245   26.4596  -73.3011 C.2       1 UNK         0.5165 
     66 O         -79.4983   25.6780  -73.5357 O.2       1 UNK        -0.5079 
     67 H67       -82.4642   21.9602  -74.2720 H         1 UNK         0.0900 
     68 H68       -83.5448   22.3000  -72.9211 H         1 UNK         0.0900 
     69 H69       -81.8250   22.0058  -72.6281 H         1 UNK         0.0900 
     70 H70       -81.6588   24.1013  -71.5339 H         1 UNK         0.2959 
     71 H71       -82.4763   26.5337  -72.6920 H         1 UNK         0.1079 
     72 H72       -81.9274   25.9892  -70.1899 H         1 UNK         0.0837 
     73 H73       -80.2658   26.3167  -70.5880 H         1 UNK         0.0837 
     74 H74       -80.5594   29.8773  -69.2475 H         1 UNK         0.0685 
     75 H75       -80.2324   28.2396  -68.7477 H         1 UNK         0.0685 
     76 H76       -78.1818   27.1927  -69.4367 H         1 UNK         0.1434 
     77 H77       -75.5792   29.1831  -72.1880 H         1 UNK         0.1329 
     78 H78       -79.5165   30.7202  -71.4735 H         1 UNK         0.1335 
     79 H79       -77.9563   32.0258  -72.7839 H         1 UNK         0.0680 
     80 H80       -77.5291   30.7985  -73.9530 H         1 UNK         0.0680 
     81 H81       -74.2773   32.2935  -74.9183 H         1 UNK         0.1032 
     82 H82       -75.9016   31.8709  -75.3440 H         1 UNK         0.1032 
     83 H83       -75.4657   29.4839  -75.0039 H         1 UNK         0.0461 
     84 H84       -72.8008   29.3507  -77.8914 H         1 UNK         0.3453 
     85 H85       -72.4396   28.9985  -76.2206 H         1 UNK         0.3453 
     86 H86       -73.8082   28.5649  -73.8968 H         1 UNK         0.2984 
     87 H87       -70.5665   29.5798  -72.8911 H         1 UNK         0.0554 
     88 H88       -71.3655   28.7420  -70.7028 H         1 UNK         0.0847 
     89 H89       -73.0438   28.8591  -71.2344 H         1 UNK         0.0847 
     90 H90       -72.0772   30.3113  -71.0358 H         1 UNK         0.0847 
     91 H91       -71.7434   27.0909  -72.5322 H         1 UNK         0.3141 
     92 H92       -69.8708   25.6268  -74.7187 H         1 UNK         0.0743 
     93 H93       -70.8971   25.2205  -72.4830 H         1 UNK         0.0784 
     94 H94       -72.4966   25.0842  -73.2225 H         1 UNK         0.0784 
     95 H95       -71.2504   23.8974  -73.5718 H         1 UNK         0.0784 
     96 H96       -72.5930   25.7503  -75.8938 H         1 UNK         0.3213 
     97 H97       -71.6153   24.5066  -78.8609 H         1 UNK         0.0855 
     98 H98       -71.3013   22.1612  -78.0877 H         1 UNK         0.0814 
     99 H99       -72.8841   22.3554  -78.8189 H         1 UNK         0.0814 
    100 H100      -72.7254   22.2800  -77.0636 H         1 UNK         0.0814 
    101 H101      -74.1292   24.2799  -77.3440 H         1 UNK         0.3105 
    102 H102      -75.1004   27.5994  -77.7991 H         1 UNK         0.0547 
    103 H103      -75.7051   26.7388  -80.0640 H         1 UNK         0.0837 
    104 H104      -76.2248   25.2140  -79.3579 H         1 UNK         0.0837 
    105 H105      -77.0850   26.7058  -78.9806 H         1 UNK         0.0837 
    106 H106      -76.6170   25.4323  -76.8792 H         1 UNK         0.3020 
    107 H107      -75.2573   24.4692  -74.0390 H         1 UNK         0.1245 
    108 H108      -77.0429   25.6935  -72.5525 H         1 UNK         0.0781 
    109 H109      -76.6898   27.1026  -73.5109 H         1 UNK         0.0781 
    110 H110      -74.9591   27.3935  -69.8505 H         1 UNK         0.0836 
    111 H111      -76.1426   26.1263  -70.0751 H         1 UNK         0.0836 
    112 H112      -78.0471   24.9700  -74.5133 H         1 UNK         0.3022 
    113 H113      -78.5058   22.1997  -76.7122 H         1 UNK         0.0747 
    114 H114      -80.1715   21.6582  -74.9768 H         1 UNK         0.0793 
    115 H115      -78.5623   21.3082  -74.3740 H         1 UNK         0.0793 
    116 H116      -79.3964   22.7576  -73.8311 H         1 UNK         0.0793 
    117 H117      -80.1463   24.3361  -75.5678 H         1 UNK         0.3047 
    118 H118      -79.9852   26.3791  -78.5094 H         1 UNK         0.0822 
    119 H119      -82.4478   26.2018  -78.2504 H         1 UNK         0.0807 
    120 H120      -82.2658   24.7727  -77.2341 H         1 UNK         0.0807 
    121 H121      -81.7934   24.7192  -78.9258 H         1 UNK         0.0807 
    122 H122      -81.2430   26.6207  -75.9092 H         1 UNK         0.2946 
    123 H123      -78.6045   28.2792  -74.3115 H         1 UNK         0.1144 
    124 H124      -80.0481   30.3042  -74.1812 H         1 UNK         0.0793 
    125 H125      -80.9770   29.7578  -75.5769 H         1 UNK         0.0793 
    126 H126      -79.2849   30.1976  -75.7594 H         1 UNK         0.0793 
    127 H127      -81.3156   28.2540  -73.5918 H         1 UNK         0.2896 
@<TRIPOS>BOND
     1    1    2 1    
     2    1   67 1    
     3    1   68 1    
     4    1   69 1    
     5    2    3 2    
     6    2    4 am   BACKBONE|DICT|INTERRES
     7    4    5 1    
     8    4   70 1    
     9    5    6 1    
    10    5   65 1    
    11    5   71 1    
    12    6    7 1    
    13    6   72 1    
    14    6   73 1    
    15    7    8 1    
    16    8    9 1    
    17    8   74 1    
    18    8   75 1    
    19    9   10 ar   
    20    9   14 ar   
    21   10   11 ar   
    22   10   76 1    
    23   11   12 ar   
    24   11   48 1    
    25   12   13 ar   
    26   12   77 1    
    27   13   14 ar   
    28   13   15 1    
    29   14   78 1    
    30   15   16 1    
    31   15   79 1    
    32   15   80 1    
    33   16   17 1    
    34   17   18 1    
    35   17   81 1    
    36   17   82 1    
    37   18   19 1    
    38   18   22 1    
    39   18   83 1    
    40   19   20 am   BACKBONE|DICT|INTERRES
    41   19   21 2    
    42   20   84 1    
    43   20   85 1    
    44   22   23 am   BACKBONE|DICT|INTERRES
    45   22   86 1    
    46   23   24 2    
    47   23   25 1    
    48   25   26 1    
    49   25   27 1    
    50   25   87 1    
    51   26   88 1    
    52   26   89 1    
    53   26   90 1    
    54   27   28 am   BACKBONE|DICT|INTERRES
    55   27   91 1    
    56   28   29 2    
    57   28   30 1    
    58   30   31 1    
    59   30   32 1    
    60   30   92 1    
    61   31   93 1    
    62   31   94 1    
    63   31   95 1    
    64   32   33 am   BACKBONE|DICT|INTERRES
    65   32   96 1    
    66   33   34 2    
    67   33   35 1    
    68   35   36 1    
    69   35   37 1    
    70   35   97 1    
    71   36   98 1    
    72   36   99 1    
    73   36  100 1    
    74   37   38 am   BACKBONE|DICT|INTERRES
    75   37  101 1    
    76   38   39 2    
    77   38   40 1    
    78   40   41 1    
    79   40   42 1    
    80   40  102 1    
    81   41  103 1    
    82   41  104 1    
    83   41  105 1    
    84   42   43 am   BACKBONE|DICT|INTERRES
    85   42  106 1    
    86   43   44 2    
    87   43   45 1    
    88   45   46 1    
    89   45   49 1    
    90   45  107 1    
    91   46   47 1    
    92   46  108 1    
    93   46  109 1    
    94   47   48 1    
    95   48  110 1    
    96   48  111 1    
    97   49   50 am   BACKBONE|DICT|INTERRES
    98   49  112 1    
    99   50   51 2    
   100   50   52 1    
   101   52   53 1    
   102   52   54 1    
   103   52  113 1    
   104   53  114 1    
   105   53  115 1    
   106   53  116 1    
   107   54   55 am   BACKBONE|DICT|INTERRES
   108   54  117 1    
   109   55   56 2    
   110   55   57 1    
   111   57   58 1    
   112   57   59 1    
   113   57  118 1    
   114   58  119 1    
   115   58  120 1    
   116   58  121 1    
   117   59   60 am   BACKBONE|DICT|INTERRES
   118   59  122 1    
   119   60   61 2    
   120   60   62 1    
   121   62   63 1    
   122   62   64 1    
   123   62  123 1    
   124   63  124 1    
   125   63  125 1    
   126   63  126 1    
   127   64   65 am   BACKBONE|DICT|INTERRES
   128   64  127 1    
   129   65   66 2    
@<TRIPOS>SUBSTRUCTURE
     1 UNK         1 GROUP             0       ****    0 ROOT    
