@<TRIPOS>MOLECULE
3R135
127   129    1
SMALL
USER_CHARGES


@<TRIPOS>ATOM
      1 CA        -81.1941   28.2159  -70.1264 C.3       0 UNK        -0.1998 
      2 C         -81.9109   27.8929  -71.4288 C.2       0 UNK         0.4909 
      3 O         -83.0405   27.4045  -71.4030 O.2       0 UNK        -0.5240 
      4 N         -81.2616   28.1704  -72.5668 N.am      1 UNK        -0.4739 
      5 CA        -81.7964   27.9830  -73.9234 C.3       1 UNK         0.0864 
      6 C6        -80.8687   28.5944  -75.0052 C.3       11 UNK        -0.0881 
      7 S7        -80.3884   30.3294  -74.7021 S.3       11 UNK        -0.2682 
      8 C8        -78.5738   30.2396  -74.8673 C.3       11 UNK         0.0289 
      9 C9        -77.8772   30.0230  -73.5304 C.ar      11 UNK        -0.0687 
     10 C10       -77.9833   28.8050  -72.8507 C.ar      11 UNK        -0.0823 
     11 C11       -77.3510   28.6230  -71.6166 C.ar      11 UNK        -0.0830 
     12 C12       -76.5673   29.6538  -71.0879 C.ar      11 UNK        -0.1021 
     13 C13       -76.4106   30.8581  -71.7801 C.ar      11 UNK        -0.0753 
     14 C14       -77.0949   31.0447  -72.9847 C.ar      11 UNK        -0.0933 
     15 C15       -75.5174   31.9644  -71.2283 C.3       11 UNK         0.0166 
     16 S16       -74.1915   32.4286  -72.3972 S.3       11 UNK        -0.2615 
     17 C17       -72.7093   31.5834  -71.7396 C.3       11 UNK        -0.0865 
     18 CA        -72.3951   30.1407  -72.2460 C.3       10 UNK         0.0862 
     19 C         -73.2240   29.0290  -71.5396 C.2       10 UNK         0.5551 
     20 N         -73.7040   28.0040  -72.2268 N.am      10 UNK        -0.7319 
     21 O         -73.3786   29.0648  -70.3209 O.2       10 UNK        -0.5018 
     22 N         -72.1845   30.0133  -73.7011 N.am      10 UNK        -0.4509 
     23 C         -73.0864   29.9502  -74.6899 C.2       10 UNK         0.4899 
     24 O         -74.3026   30.0361  -74.5466 O.2       10 UNK        -0.4839 
     25 CA        -72.5310   29.6883  -76.0982 C.3       9 UNK         0.0222 
     26 CB        -71.3187   30.5748  -76.4599 C.3       9 UNK        -0.1966 
     27 N         -72.2661   28.2607  -76.3016 N.am      9 UNK        -0.4218 
     28 C         -71.3463   27.4899  -75.6971 C.2       9 UNK         0.5020 
     29 O         -70.4743   27.9323  -74.9469 O.2       9 UNK        -0.5274 
     30 CA        -71.4056   25.9683  -75.9425 C.3       8 UNK         0.0270 
     31 CB        -71.4464   25.1980  -74.6100 C.3       8 UNK        -0.1976 
     32 N         -72.5657   25.5738  -76.7441 N.am      8 UNK        -0.4313 
     33 C         -72.5680   25.4175  -78.0744 C.2       8 UNK         0.5041 
     34 O         -71.5610   25.5216  -78.7756 O.2       8 UNK        -0.5577 
     35 CA        -73.9215   25.1195  -78.7494 C.3       7 UNK         0.0284 
     36 CB        -74.0694   23.6115  -79.0065 C.3       7 UNK        -0.1958 
     37 N         -75.0853   25.6020  -77.9967 N.am      7 UNK        -0.4454 
     38 C         -75.3369   26.8888  -77.7151 C.2       7 UNK         0.5089 
     39 O         -74.6298   27.8200  -78.0991 O.2       7 UNK        -0.5125 
     40 CA        -76.5380   27.1818  -76.7993 C.3       6 UNK         0.0408 
     41 CB        -77.8392   27.2107  -77.6164 C.3       6 UNK        -0.1791 
     42 N         -76.6697   26.2258  -75.6955 N.am      6 UNK        -0.4762 
     43 C         -75.7356   25.9880  -74.7604 C.2       6 UNK         0.5007 
     44 O         -74.6489   26.5636  -74.7169 O.2       6 UNK        -0.5032 
     45 CA        -76.0278   24.8438  -73.7715 C.3       5 UNK         0.0783 
     46 C46       -77.0389   25.2384  -72.6681 C.3       11 UNK        -0.0857 
     47 S47       -76.2595   26.0921  -71.2626 S.3       11 UNK        -0.2512 
     48 C48       -77.5239   27.3279  -70.8357 C.3       11 UNK         0.0225 
     49 N         -76.4826   23.6595  -74.4977 N.am      5 UNK        -0.4615 
     50 C         -75.6920   22.8471  -75.2096 C.2       4 UNK         0.5053 
     51 O         -74.4701   22.9714  -75.2831 O.2       4 UNK        -0.5105 
     52 CA        -76.3867   21.7105  -75.9809 C.3       4 UNK         0.0263 
     53 CB        -76.4092   20.4259  -75.1375 C.3       4 UNK        -0.1981 
     54 N         -77.7541   22.0454  -76.3933 N.am      4 UNK        -0.4224 
     55 C         -78.0566   22.9731  -77.3122 C.2       3 UNK         0.4895 
     56 O         -77.2146   23.6274  -77.9264 O.2       3 UNK        -0.5091 
     57 CA        -79.5500   23.2525  -77.5502 C.3       3 UNK         0.0250 
     58 CB        -80.1513   22.2065  -78.5026 C.3       3 UNK        -0.1996 
     59 N         -80.3535   23.3254  -76.3221 N.am      3 UNK        -0.4254 
     60 C         -80.1440   24.1981  -75.3271 C.2       2 UNK         0.5004 
     61 O         -79.1794   24.9661  -75.2813 O.2       2 UNK        -0.5226 
     62 CA        -81.1589   24.2073  -74.1724 C.3       2 UNK         0.0269 
     63 CB        -80.6795   23.3085  -73.0221 C.3       2 UNK        -0.1926 
     64 N         -81.3148   25.5777  -73.6819 N.am      2 UNK        -0.4687 
     65 C         -82.0588   26.5074  -74.2974 C.2       1 UNK         0.5165 
     66 O         -82.8821   26.2457  -75.1761 O.2       1 UNK        -0.5079 
     67 H67       -80.2814   28.7879  -70.2940 H         1 UNK         0.0900 
     68 H68       -80.9318   27.2966  -69.6036 H         1 UNK         0.0900 
     69 H69       -81.8427   28.8036  -69.4773 H         1 UNK         0.0900 
     70 H70       -80.3682   28.6393  -72.5206 H         1 UNK         0.2959 
     71 H71       -82.7584   28.4985  -73.9655 H         1 UNK         0.1079 
     72 H72       -79.9708   27.9841  -75.1105 H         1 UNK         0.0837 
     73 H73       -81.3591   28.5626  -75.9804 H         1 UNK         0.0837 
     74 H74       -78.2873   29.4543  -75.5661 H         1 UNK         0.0685 
     75 H75       -78.2328   31.1716  -75.3207 H         1 UNK         0.0685 
     76 H76       -78.5607   28.0019  -73.2812 H         1 UNK         0.1434 
     77 H77       -76.0601   29.5082  -70.1439 H         1 UNK         0.1329 
     78 H78       -76.9866   31.9811  -73.5143 H         1 UNK         0.1335 
     79 H79       -76.1344   32.8433  -71.0373 H         1 UNK         0.0680 
     80 H80       -75.0864   31.6791  -70.2676 H         1 UNK         0.0680 
     81 H81       -72.7415   31.6088  -70.6490 H         1 UNK         0.1032 
     82 H82       -71.8622   32.2200  -71.9984 H         1 UNK         0.1032 
     83 H83       -71.3942   29.9344  -71.8647 H         1 UNK         0.0461 
     84 H84       -74.2543   27.3128  -71.7419 H         1 UNK         0.3453 
     85 H85       -73.6664   27.9886  -73.2361 H         1 UNK         0.3453 
     86 H86       -71.2316   29.8008  -73.9677 H         1 UNK         0.2984 
     87 H87       -73.3284   29.9429  -76.7981 H         1 UNK         0.0554 
     88 H88       -71.5621   31.6302  -76.3317 H         1 UNK         0.0847 
     89 H89       -70.4418   30.3701  -75.8464 H         1 UNK         0.0847 
     90 H90       -71.0306   30.4352  -77.5018 H         1 UNK         0.0847 
     91 H91       -72.9550   27.7973  -76.8845 H         1 UNK         0.3141 
     92 H92       -70.4869   25.6904  -76.4630 H         1 UNK         0.0743 
     93 H93       -70.5514   25.3913  -74.0173 H         1 UNK         0.0784 
     94 H94       -72.3056   25.4844  -74.0025 H         1 UNK         0.0784 
     95 H95       -71.4986   24.1216  -74.7750 H         1 UNK         0.0784 
     96 H96       -73.4437   25.5008  -76.2426 H         1 UNK         0.3213 
     97 H97       -73.9210   25.6316  -79.7139 H         1 UNK         0.0855 
     98 H98       -73.2310   23.2301  -79.5909 H         1 UNK         0.0814 
     99 H99       -74.9791   23.3905  -79.5650 H         1 UNK         0.0814 
    100 H100      -74.1014   23.0463  -78.0747 H         1 UNK         0.0814 
    101 H101      -75.7661   24.9029  -77.7094 H         1 UNK         0.3105 
    102 H102      -76.3829   28.1677  -76.3565 H         1 UNK         0.0547 
    103 H103      -77.7900   27.9683  -78.3995 H         1 UNK         0.0837 
    104 H104      -78.0325   26.2534  -78.1009 H         1 UNK         0.0837 
    105 H105      -78.7006   27.4438  -76.9933 H         1 UNK         0.0837 
    106 H106      -77.5434   25.7038  -75.6464 H         1 UNK         0.3020 
    107 H107      -75.0807   24.5836  -73.2918 H         1 UNK         0.1245 
    108 H108      -77.4932   24.3407  -72.2470 H         1 UNK         0.0781 
    109 H109      -77.8654   25.8221  -73.0736 H         1 UNK         0.0781 
    110 H110      -77.4548   27.5351  -69.7666 H         1 UNK         0.0836 
    111 H111      -78.5200   26.9120  -70.9923 H         1 UNK         0.0836 
    112 H112      -77.4820   23.5261  -74.5506 H         1 UNK         0.3022 
    113 H113      -75.7997   21.5180  -76.8816 H         1 UNK         0.0747 
    114 H114      -76.8272   19.5898  -75.6985 H         1 UNK         0.0793 
    115 H115      -75.4002   20.1397  -74.8371 H         1 UNK         0.0793 
    116 H116      -76.9975   20.5488  -74.2272 H         1 UNK         0.0793 
    117 H117      -78.5084   21.5531  -75.9368 H         1 UNK         0.3047 
    118 H118      -79.6186   24.2279  -78.0366 H         1 UNK         0.0822 
    119 H119      -81.1755   22.4610  -78.7761 H         1 UNK         0.0807 
    120 H120      -80.1596   21.2100  -78.0594 H         1 UNK         0.0807 
    121 H121      -79.5775   22.1466  -79.4287 H         1 UNK         0.0807 
    122 H122      -81.1585   22.7169  -76.2753 H         1 UNK         0.2946 
    123 H123      -82.1217   23.8384  -74.5340 H         1 UNK         0.1144 
    124 H124      -81.3982   23.3014  -72.2024 H         1 UNK         0.0793 
    125 H125      -79.7212   23.6368  -72.6211 H         1 UNK         0.0793 
    126 H126      -80.5591   22.2765  -73.3543 H         1 UNK         0.0793 
    127 H127      -80.6506   25.8888  -72.9900 H         1 UNK         0.2896 
@<TRIPOS>BOND
     1    1    2 1    
     2    1   67 1    
     3    1   68 1    
     4    1   69 1    
     5    2    3 2    
     6    2    4 am   BACKBONE|DICT|INTERRES
     7    4    5 1    
     8    4   70 1    
     9    5    6 1    
    10    5   65 1    
    11    5   71 1    
    12    6    7 1    
    13    6   72 1    
    14    6   73 1    
    15    7    8 1    
    16    8    9 1    
    17    8   74 1    
    18    8   75 1    
    19    9   10 ar   
    20    9   14 ar   
    21   10   11 ar   
    22   10   76 1    
    23   11   12 ar   
    24   11   48 1    
    25   12   13 ar   
    26   12   77 1    
    27   13   14 ar   
    28   13   15 1    
    29   14   78 1    
    30   15   16 1    
    31   15   79 1    
    32   15   80 1    
    33   16   17 1    
    34   17   18 1    
    35   17   81 1    
    36   17   82 1    
    37   18   19 1    
    38   18   22 1    
    39   18   83 1    
    40   19   20 am   BACKBONE|DICT|INTERRES
    41   19   21 2    
    42   20   84 1    
    43   20   85 1    
    44   22   23 am   BACKBONE|DICT|INTERRES
    45   22   86 1    
    46   23   24 2    
    47   23   25 1    
    48   25   26 1    
    49   25   27 1    
    50   25   87 1    
    51   26   88 1    
    52   26   89 1    
    53   26   90 1    
    54   27   28 am   BACKBONE|DICT|INTERRES
    55   27   91 1    
    56   28   29 2    
    57   28   30 1    
    58   30   31 1    
    59   30   32 1    
    60   30   92 1    
    61   31   93 1    
    62   31   94 1    
    63   31   95 1    
    64   32   33 am   BACKBONE|DICT|INTERRES
    65   32   96 1    
    66   33   34 2    
    67   33   35 1    
    68   35   36 1    
    69   35   37 1    
    70   35   97 1    
    71   36   98 1    
    72   36   99 1    
    73   36  100 1    
    74   37   38 am   BACKBONE|DICT|INTERRES
    75   37  101 1    
    76   38   39 2    
    77   38   40 1    
    78   40   41 1    
    79   40   42 1    
    80   40  102 1    
    81   41  103 1    
    82   41  104 1    
    83   41  105 1    
    84   42   43 am   BACKBONE|DICT|INTERRES
    85   42  106 1    
    86   43   44 2    
    87   43   45 1    
    88   45   46 1    
    89   45   49 1    
    90   45  107 1    
    91   46   47 1    
    92   46  108 1    
    93   46  109 1    
    94   47   48 1    
    95   48  110 1    
    96   48  111 1    
    97   49   50 am   BACKBONE|DICT|INTERRES
    98   49  112 1    
    99   50   51 2    
   100   50   52 1    
   101   52   53 1    
   102   52   54 1    
   103   52  113 1    
   104   53  114 1    
   105   53  115 1    
   106   53  116 1    
   107   54   55 am   BACKBONE|DICT|INTERRES
   108   54  117 1    
   109   55   56 2    
   110   55   57 1    
   111   57   58 1    
   112   57   59 1    
   113   57  118 1    
   114   58  119 1    
   115   58  120 1    
   116   58  121 1    
   117   59   60 am   BACKBONE|DICT|INTERRES
   118   59  122 1    
   119   60   61 2    
   120   60   62 1    
   121   62   63 1    
   122   62   64 1    
   123   62  123 1    
   124   63  124 1    
   125   63  125 1    
   126   63  126 1    
   127   64   65 am   BACKBONE|DICT|INTERRES
   128   64  127 1    
   129   65   66 2    
@<TRIPOS>SUBSTRUCTURE
     1 UNK         1 GROUP             0       ****    0 ROOT    
