@<TRIPOS>MOLECULE
3R135
127   129    1
SMALL
USER_CHARGES


@<TRIPOS>ATOM
      1 CA        -85.6273   29.2273  -73.9989 C.3       0 UNK        -0.1998 
      2 C         -84.2746   28.5752  -73.7535 C.2       0 UNK         0.4909 
      3 O         -84.1662   27.7099  -72.8838 O.2       0 UNK        -0.5240 
      4 N         -83.2507   28.9895  -74.5133 N.am      1 UNK        -0.4739 
      5 CA        -81.8683   28.4916  -74.4703 C.3       1 UNK         0.0864 
      6 C6        -81.1317   28.8083  -73.1391 C.3       11 UNK        -0.0881 
      7 S7        -81.0687   30.5854  -72.7359 S.3       11 UNK        -0.2682 
      8 C8        -80.6182   30.5140  -70.9704 C.3       11 UNK         0.0289 
      9 C9        -79.2569   29.8636  -70.7633 C.ar      11 UNK        -0.0687 
     10 C10       -79.1624   28.4893  -70.5203 C.ar      11 UNK        -0.0823 
     11 C11       -77.9164   27.8691  -70.3895 C.ar      11 UNK        -0.0830 
     12 C12       -76.7583   28.6534  -70.4410 C.ar      11 UNK        -0.1021 
     13 C13       -76.8392   30.0260  -70.6924 C.ar      11 UNK        -0.0753 
     14 C14       -78.0905   30.6284  -70.8474 C.ar      11 UNK        -0.0933 
     15 C15       -75.5686   30.8436  -70.8389 C.3       11 UNK         0.0166 
     16 S16       -75.0544   30.9134  -72.5848 S.3       11 UNK        -0.2615 
     17 C17       -73.2464   31.1088  -72.4104 C.3       11 UNK        -0.0865 
     18 CA        -72.4476   29.8229  -72.7596 C.3       10 UNK         0.0862 
     19 C         -72.7178   28.6433  -71.7838 C.2       10 UNK         0.5551 
     20 N         -73.1337   27.4718  -72.2492 N.am      10 UNK        -0.7319 
     21 O         -72.5195   28.7875  -70.5802 O.2       10 UNK        -0.5018 
     22 N         -72.5476   29.4616  -74.1824 N.am      10 UNK        -0.4509 
     23 C         -71.7804   29.9737  -75.1505 C.2       10 UNK         0.4899 
     24 O         -70.9650   30.8813  -74.9742 O.2       10 UNK        -0.4839 
     25 CA        -71.9408   29.3356  -76.5426 C.3       9 UNK         0.0222 
     26 CB        -70.9423   29.8824  -77.5845 C.3       9 UNK        -0.1966 
     27 N         -71.8855   27.8706  -76.4856 N.am      9 UNK        -0.4218 
     28 C         -70.8848   27.0949  -76.0375 C.2       9 UNK         0.5020 
     29 O         -69.8010   27.5261  -75.6416 O.2       9 UNK        -0.5274 
     30 CA        -71.1292   25.5724  -76.0080 C.3       8 UNK         0.0270 
     31 CB        -71.3542   25.0915  -74.5652 C.3       8 UNK        -0.1976 
     32 N         -72.2587   25.1401  -76.8363 N.am      8 UNK        -0.4313 
     33 C         -72.2549   25.1231  -78.1765 C.2       8 UNK         0.5041 
     34 O         -71.2655   25.3821  -78.8627 O.2       8 UNK        -0.5577 
     35 CA        -73.5894   24.8012  -78.8687 C.3       7 UNK         0.0284 
     36 CB        -73.7996   23.2813  -78.9578 C.3       7 UNK        -0.1958 
     37 N         -74.7409   25.4293  -78.2107 N.am      7 UNK        -0.4454 
     38 C         -74.9402   26.7534  -78.1213 C.2       7 UNK         0.5089 
     39 O         -74.1879   27.5927  -78.6142 O.2       7 UNK        -0.5125 
     40 CA        -76.1547   27.2300  -77.3076 C.3       6 UNK         0.0408 
     41 CB        -77.4478   27.1111  -78.1286 C.3       6 UNK        -0.1791 
     42 N         -76.3037   26.5075  -76.0449 N.am      6 UNK        -0.4762 
     43 C         -75.4352   26.5537  -75.0241 C.2       6 UNK         0.5007 
     44 O         -74.4261   27.2632  -74.9981 O.2       6 UNK        -0.5032 
     45 CA        -75.7167   25.6162  -73.8370 C.3       5 UNK         0.0783 
     46 C46       -76.6921   26.2712  -72.8321 C.3       11 UNK        -0.0857 
     47 S47       -76.5255   25.5286  -71.1741 S.3       11 UNK        -0.2512 
     48 C48       -77.8489   26.3520  -70.2155 C.3       11 UNK         0.0225 
     49 N         -76.1680   24.2953  -74.2816 N.am      5 UNK        -0.4615 
     50 C         -75.4070   23.4275  -74.9623 C.2       4 UNK         0.5053 
     51 O         -74.2355   23.6409  -75.2744 O.2       4 UNK        -0.5105 
     52 CA        -76.0826   22.1199  -75.4051 C.3       4 UNK         0.0263 
     53 CB        -76.1503   21.1209  -74.2390 C.3       4 UNK        -0.1981 
     54 N         -77.4256   22.3382  -75.9488 N.am      4 UNK        -0.4224 
     55 C         -77.6812   23.0176  -77.0763 C.2       3 UNK         0.4895 
     56 O         -76.8111   23.5033  -77.7968 O.2       3 UNK        -0.5091 
     57 CA        -79.1587   23.2316  -77.4416 C.3       3 UNK         0.0250 
     58 CB        -79.7117   22.0118  -78.1956 C.3       3 UNK        -0.1996 
     59 N         -80.0166   23.5333  -76.2906 N.am      3 UNK        -0.4254 
     60 C         -79.8562   24.5833  -75.4735 C.2       2 UNK         0.5004 
     61 O         -78.9165   25.3792  -75.5481 O.2       2 UNK        -0.5226 
     62 CA        -80.8935   24.7449  -74.3527 C.3       2 UNK         0.0269 
     63 CB        -80.4024   24.0545  -73.0691 C.3       2 UNK        -0.1926 
     64 N         -81.1419   26.1583  -74.0679 N.am      2 UNK        -0.4687 
     65 C         -81.8062   26.9986  -74.8757 C.2       1 UNK         0.5165 
     66 O         -82.3569   26.6386  -75.9194 O.2       1 UNK        -0.5079 
     67 H67       -85.5821   29.9776  -74.7880 H         1 UNK         0.0900 
     68 H68       -86.3597   28.4742  -74.2884 H         1 UNK         0.0900 
     69 H69       -85.9791   29.7134  -73.0893 H         1 UNK         0.0900 
     70 H70       -83.4244   29.6895  -75.2209 H         1 UNK         0.2959 
     71 H71       -81.3364   29.0198  -75.2634 H         1 UNK         0.1079 
     72 H72       -81.6030   28.2809  -72.3081 H         1 UNK         0.0837 
     73 H73       -80.0970   28.4642  -73.1928 H         1 UNK         0.0837 
     74 H74       -81.3889   29.9726  -70.4195 H         1 UNK         0.0685 
     75 H75       -80.6099   31.5273  -70.5660 H         1 UNK         0.0685 
     76 H76       -80.0643   27.8956  -70.4641 H         1 UNK         0.1434 
     77 H77       -75.7874   28.1879  -70.3372 H         1 UNK         0.1329 
     78 H78       -78.1553   31.6874  -71.0577 H         1 UNK         0.1335 
     79 H79       -75.7187   31.8569  -70.4635 H         1 UNK         0.0680 
     80 H80       -74.7804   30.4013  -70.2280 H         1 UNK         0.0680 
     81 H81       -72.9314   31.9232  -73.0642 H         1 UNK         0.1032 
     82 H82       -73.0015   31.4445  -71.4012 H         1 UNK         0.1032 
     83 H83       -71.3970   30.0550  -72.5736 H         1 UNK         0.0461 
     84 H84       -73.3348   27.3429  -73.2290 H         1 UNK         0.3453 
     85 H85       -73.2841   26.7224  -71.5934 H         1 UNK         0.3453 
     86 H86       -73.2204   28.7407  -74.4215 H         1 UNK         0.2984 
     87 H87       -72.9457   29.5895  -76.8831 H         1 UNK         0.0554 
     88 H88       -71.1049   29.4288  -78.5623 H         1 UNK         0.0847 
     89 H89       -69.9081   29.6939  -77.2947 H         1 UNK         0.0847 
     90 H90       -71.0550   30.9605  -77.7045 H         1 UNK         0.0847 
     91 H91       -72.7384   27.4043  -76.7671 H         1 UNK         0.3141 
     92 H92       -70.2248   25.0930  -76.3883 H         1 UNK         0.0743 
     93 H93       -72.2735   25.4985  -74.1454 H         1 UNK         0.0784 
     94 H94       -71.4201   24.0044  -74.5165 H         1 UNK         0.0784 
     95 H95       -70.5334   25.3963  -73.9145 H         1 UNK         0.0784 
     96 H96       -73.0920   24.8243  -76.3455 H         1 UNK         0.3213 
     97 H97       -73.5353   25.1962  -79.8854 H         1 UNK         0.0855 
     98 H98       -73.9089   22.8298  -77.9713 H         1 UNK         0.0814 
     99 H99       -72.9538   22.7972  -79.4478 H         1 UNK         0.0814 
    100 H100      -74.6908   23.0385  -79.5368 H         1 UNK         0.0814 
    101 H101      -75.4467   24.8005  -77.8327 H         1 UNK         0.3105 
    102 H102      -76.0024   28.2845  -77.0676 H         1 UNK         0.0547 
    103 H103      -77.3744   27.6799  -79.0564 H         1 UNK         0.0837 
    104 H104      -77.6640   26.0768  -78.3960 H         1 UNK         0.0837 
    105 H105      -78.3046   27.4979  -77.5766 H         1 UNK         0.0837 
    106 H106      -77.1405   25.9367  -75.9414 H         1 UNK         0.3020 
    107 H107      -74.7578   25.4686  -73.3367 H         1 UNK         0.1245 
    108 H108      -77.7258   26.1969  -73.1732 H         1 UNK         0.0781 
    109 H109      -76.4782   27.3373  -72.7422 H         1 UNK         0.0781 
    110 H110      -77.7063   26.1270  -69.1579 H         1 UNK         0.0836 
    111 H111      -78.7985   25.8962  -70.5001 H         1 UNK         0.0836 
    112 H112      -77.1327   24.0643  -74.1008 H         1 UNK         0.3022 
    113 H113      -75.4684   21.6812  -76.1944 H         1 UNK         0.0747 
    114 H114      -76.5507   20.1601  -74.5629 H         1 UNK         0.0793 
    115 H115      -75.1566   20.9340  -73.8292 H         1 UNK         0.0793 
    116 H116      -76.7750   21.4879  -73.4235 H         1 UNK         0.0793 
    117 H117      -78.2038   21.9719  -75.4205 H         1 UNK         0.3047 
    118 H118      -79.2037   24.0922  -78.1123 H         1 UNK         0.0822 
    119 H119      -79.7342   21.1209  -77.5666 H         1 UNK         0.0807 
    120 H120      -79.0964   21.7802  -79.0664 H         1 UNK         0.0807 
    121 H121      -80.7239   22.1938  -78.5573 H         1 UNK         0.0807 
    122 H122      -80.8068   22.9205  -76.1471 H         1 UNK         0.2946 
    123 H123      -81.8342   24.2866  -74.6670 H         1 UNK         0.1144 
    124 H124      -80.2378   22.9890  -73.2352 H         1 UNK         0.0793 
    125 H125      -81.1345   24.1444  -72.2663 H         1 UNK         0.0793 
    126 H126      -79.4623   24.4772  -72.7130 H         1 UNK         0.0793 
    127 H127      -80.7037   26.5303  -73.2399 H         1 UNK         0.2896 
@<TRIPOS>BOND
     1    1    2 1    
     2    1   67 1    
     3    1   68 1    
     4    1   69 1    
     5    2    3 2    
     6    2    4 am   BACKBONE|DICT|INTERRES
     7    4    5 1    
     8    4   70 1    
     9    5    6 1    
    10    5   65 1    
    11    5   71 1    
    12    6    7 1    
    13    6   72 1    
    14    6   73 1    
    15    7    8 1    
    16    8    9 1    
    17    8   74 1    
    18    8   75 1    
    19    9   10 ar   
    20    9   14 ar   
    21   10   11 ar   
    22   10   76 1    
    23   11   12 ar   
    24   11   48 1    
    25   12   13 ar   
    26   12   77 1    
    27   13   14 ar   
    28   13   15 1    
    29   14   78 1    
    30   15   16 1    
    31   15   79 1    
    32   15   80 1    
    33   16   17 1    
    34   17   18 1    
    35   17   81 1    
    36   17   82 1    
    37   18   19 1    
    38   18   22 1    
    39   18   83 1    
    40   19   20 am   BACKBONE|DICT|INTERRES
    41   19   21 2    
    42   20   84 1    
    43   20   85 1    
    44   22   23 am   BACKBONE|DICT|INTERRES
    45   22   86 1    
    46   23   24 2    
    47   23   25 1    
    48   25   26 1    
    49   25   27 1    
    50   25   87 1    
    51   26   88 1    
    52   26   89 1    
    53   26   90 1    
    54   27   28 am   BACKBONE|DICT|INTERRES
    55   27   91 1    
    56   28   29 2    
    57   28   30 1    
    58   30   31 1    
    59   30   32 1    
    60   30   92 1    
    61   31   93 1    
    62   31   94 1    
    63   31   95 1    
    64   32   33 am   BACKBONE|DICT|INTERRES
    65   32   96 1    
    66   33   34 2    
    67   33   35 1    
    68   35   36 1    
    69   35   37 1    
    70   35   97 1    
    71   36   98 1    
    72   36   99 1    
    73   36  100 1    
    74   37   38 am   BACKBONE|DICT|INTERRES
    75   37  101 1    
    76   38   39 2    
    77   38   40 1    
    78   40   41 1    
    79   40   42 1    
    80   40  102 1    
    81   41  103 1    
    82   41  104 1    
    83   41  105 1    
    84   42   43 am   BACKBONE|DICT|INTERRES
    85   42  106 1    
    86   43   44 2    
    87   43   45 1    
    88   45   46 1    
    89   45   49 1    
    90   45  107 1    
    91   46   47 1    
    92   46  108 1    
    93   46  109 1    
    94   47   48 1    
    95   48  110 1    
    96   48  111 1    
    97   49   50 am   BACKBONE|DICT|INTERRES
    98   49  112 1    
    99   50   51 2    
   100   50   52 1    
   101   52   53 1    
   102   52   54 1    
   103   52  113 1    
   104   53  114 1    
   105   53  115 1    
   106   53  116 1    
   107   54   55 am   BACKBONE|DICT|INTERRES
   108   54  117 1    
   109   55   56 2    
   110   55   57 1    
   111   57   58 1    
   112   57   59 1    
   113   57  118 1    
   114   58  119 1    
   115   58  120 1    
   116   58  121 1    
   117   59   60 am   BACKBONE|DICT|INTERRES
   118   59  122 1    
   119   60   61 2    
   120   60   62 1    
   121   62   63 1    
   122   62   64 1    
   123   62  123 1    
   124   63  124 1    
   125   63  125 1    
   126   63  126 1    
   127   64   65 am   BACKBONE|DICT|INTERRES
   128   64  127 1    
   129   65   66 2    
@<TRIPOS>SUBSTRUCTURE
     1 UNK         1 GROUP             0       ****    0 ROOT    
