@<TRIPOS>MOLECULE
3R135
127   129    1
SMALL
USER_CHARGES


@<TRIPOS>ATOM
      1 CA        -79.8387   23.9825  -71.2309 C.3       0 UNK        -0.1998 
      2 C         -80.0679   25.0061  -72.3318 C.2       0 UNK         0.4909 
      3 O         -79.3481   25.0073  -73.3307 O.2       0 UNK        -0.5240 
      4 N         -81.0858   25.8648  -72.1676 N.am      1 UNK        -0.4739 
      5 CA        -81.5097   26.8950  -73.1330 C.3       1 UNK         0.0864 
      6 C6        -80.4266   28.0004  -73.3367 C.3       11 UNK        -0.0881 
      7 S7        -81.0286   29.6704  -72.9122 S.3       11 UNK        -0.2682 
      8 C8        -80.6022   29.8008  -71.1417 C.3       11 UNK         0.0289 
      9 C9        -79.1001   29.7379  -70.8997 C.ar      11 UNK        -0.0687 
     10 C10       -78.5206   28.5732  -70.3859 C.ar      11 UNK        -0.0823 
     11 C11       -77.1354   28.4816  -70.2285 C.ar      11 UNK        -0.0830 
     12 C12       -76.3323   29.5815  -70.5424 C.ar      11 UNK        -0.1021 
     13 C13       -76.8997   30.7538  -71.0479 C.ar      11 UNK        -0.0753 
     14 C14       -78.2859   30.8301  -71.2174 C.ar      11 UNK        -0.0933 
     15 C15       -76.0087   31.9288  -71.4239 C.3       11 UNK         0.0166 
     16 S16       -75.8263   32.1227  -73.2283 S.3       11 UNK        -0.2615 
     17 C17       -74.9829   30.5838  -73.7375 C.3       11 UNK        -0.0865 
     18 CA        -73.4370   30.7282  -73.7967 C.3       10 UNK         0.0862 
     19 C         -72.7680   30.3653  -72.4460 C.2       10 UNK         0.5551 
     20 N         -72.2111   31.3406  -71.7413 N.am      10 UNK        -0.7319 
     21 O         -72.7874   29.2142  -72.0160 O.2       10 UNK        -0.5018 
     22 N         -72.8731   29.9318  -74.8937 N.am      10 UNK        -0.4509 
     23 C         -71.7207   30.2086  -75.5169 C.2       10 UNK         0.4899 
     24 O         -70.9963   31.1594  -75.2165 O.2       10 UNK        -0.4839 
     25 CA        -71.3433   29.3070  -76.7084 C.3       9 UNK         0.0222 
     26 CB        -69.9099   29.5491  -77.2307 C.3       9 UNK        -0.1966 
     27 N         -71.5924   27.8817  -76.4704 N.am      9 UNK        -0.4218 
     28 C         -70.9654   27.0700  -75.6037 C.2       9 UNK         0.5020 
     29 O         -70.0579   27.4402  -74.8573 O.2       9 UNK        -0.5274 
     30 CA        -71.4057   25.5898  -75.5495 C.3       8 UNK         0.0270 
     31 CB        -71.8126   25.1926  -74.1197 C.3       8 UNK        -0.1976 
     32 N         -72.5023   25.2673  -76.4690 N.am      8 UNK        -0.4313 
     33 C         -72.3667   25.0163  -77.7788 C.2       8 UNK         0.5041 
     34 O         -71.2793   24.9400  -78.3510 O.2       8 UNK        -0.5577 
     35 CA        -73.6633   24.8736  -78.5999 C.3       7 UNK         0.0284 
     36 CB        -74.0951   23.4011  -78.6836 C.3       7 UNK        -0.1958 
     37 N         -74.7719   25.6770  -78.0736 N.am      7 UNK        -0.4454 
     38 C         -74.7833   27.0165  -78.0047 C.2       7 UNK         0.5089 
     39 O         -73.8837   27.7317  -78.4440 O.2       7 UNK        -0.5125 
     40 CA        -75.9456   27.6588  -77.2293 C.3       6 UNK         0.0408 
     41 CB        -77.2030   27.7755  -78.1037 C.3       6 UNK        -0.1791 
     42 N         -76.2392   26.9234  -75.9940 N.am      6 UNK        -0.4762 
     43 C         -75.3987   26.8652  -74.9489 C.2       6 UNK         0.5007 
     44 O         -74.3390   27.4878  -74.9104 O.2       6 UNK        -0.5032 
     45 CA        -75.7723   25.9567  -73.7614 C.3       5 UNK         0.0783 
     46 C46       -76.3391   26.8092  -72.6106 C.3       11 UNK        -0.0857 
     47 S47       -76.6475   25.8724  -71.0758 S.3       11 UNK        -0.2512 
     48 C48       -76.4937   27.1692  -69.7969 C.3       11 UNK         0.0225 
     49 N         -76.6556   24.8587  -74.1677 N.am      5 UNK        -0.4615 
     50 C         -76.2193   23.7851  -74.8380 C.2       4 UNK         0.5053 
     51 O         -75.0398   23.6142  -75.1494 O.2       4 UNK        -0.5105 
     52 CA        -77.2734   22.7551  -75.2774 C.3       4 UNK         0.0263 
     53 CB        -77.7636   21.9174  -74.0857 C.3       4 UNK        -0.1981 
     54 N         -78.4185   23.3441  -75.9811 N.am      4 UNK        -0.4224 
     55 C         -78.3427   24.0506  -77.1162 C.2       3 UNK         0.4895 
     56 O         -77.2744   24.3437  -77.6534 O.2       3 UNK        -0.5091 
     57 CA        -79.6448   24.5287  -77.7898 C.3       3 UNK         0.0250 
     58 CB        -79.9554   23.6710  -79.0321 C.3       3 UNK        -0.1996 
     59 N         -80.8311   24.6578  -76.9310 N.am      3 UNK        -0.4254 
     60 C         -81.5370   23.7079  -76.3036 C.2       2 UNK         0.5004 
     61 O         -81.2059   22.5223  -76.2599 O.2       2 UNK        -0.5226 
     62 CA        -82.8061   24.1863  -75.5695 C.3       2 UNK         0.0269 
     63 CB        -83.6879   23.0171  -75.0924 C.3       2 UNK        -0.1926 
     64 N         -82.4604   25.0163  -74.4156 N.am      2 UNK        -0.4687 
     65 C         -82.0279   26.2854  -74.4615 C.2       1 UNK         0.5165 
     66 O         -82.0104   26.9442  -75.5037 O.2       1 UNK        -0.5079 
     67 H67       -80.2805   23.0270  -71.5114 H         1 UNK         0.0900 
     68 H68       -78.7727   23.8268  -71.0717 H         1 UNK         0.0900 
     69 H69       -80.2767   24.3019  -70.2857 H         1 UNK         0.0900 
     70 H70       -81.6471   25.8053  -71.3286 H         1 UNK         0.2959 
     71 H71       -82.3946   27.3507  -72.6860 H         1 UNK         0.1079 
     72 H72       -80.0496   28.0325  -74.3604 H         1 UNK         0.0837 
     73 H73       -79.5387   27.7887  -72.7457 H         1 UNK         0.0837 
     74 H74       -80.9900   30.7440  -70.7543 H         1 UNK         0.0685 
     75 H75       -81.1160   29.0107  -70.5918 H         1 UNK         0.0685 
     76 H76       -79.1400   27.7159  -70.1598 H         1 UNK         0.1434 
     77 H77       -75.2583   29.5113  -70.4322 H         1 UNK         0.1329 
     78 H78       -78.7281   31.7294  -71.6241 H         1 UNK         0.1335 
     79 H79       -75.0223   31.8290  -70.9691 H         1 UNK         0.0680 
     80 H80       -76.4368   32.8457  -71.0163 H         1 UNK         0.0680 
     81 H81       -75.3708   30.3508  -74.7306 H         1 UNK         0.1032 
     82 H82       -75.2932   29.7453  -73.1160 H         1 UNK         0.1032 
     83 H83       -73.2129   31.7733  -74.0222 H         1 UNK         0.0461 
     84 H84       -72.1922   32.2865  -72.0893 H         1 UNK         0.3453 
     85 H85       -71.7812   31.1229  -70.8562 H         1 UNK         0.3453 
     86 H86       -73.3605   29.0645  -75.1066 H         1 UNK         0.2984 
     87 H87       -72.0240   29.5896  -77.5124 H         1 UNK         0.0554 
     88 H88       -69.7828   30.5825  -77.5554 H         1 UNK         0.0847 
     89 H89       -69.6864   28.9128  -78.0869 H         1 UNK         0.0847 
     90 H90       -69.1588   29.3578  -76.4640 H         1 UNK         0.0847 
     91 H91       -72.3439   27.4898  -77.0264 H         1 UNK         0.3141 
     92 H92       -70.5385   24.9874  -75.8281 H         1 UNK         0.0743 
     93 H93       -70.9521   25.2262  -73.4503 H         1 UNK         0.0784 
     94 H94       -72.5591   25.8720  -73.7100 H         1 UNK         0.0784 
     95 H95       -72.2142   24.1796  -74.0803 H         1 UNK         0.0784 
     96 H96       -73.4365   25.2761  -76.0819 H         1 UNK         0.3213 
     97 H97       -73.4507   25.2261  -79.6115 H         1 UNK         0.0855 
     98 H98       -74.3401   22.9955  -77.7015 H         1 UNK         0.0814 
     99 H99       -73.2998   22.7838  -79.1036 H         1 UNK         0.0814 
    100 H100      -74.9712   23.2807  -79.3212 H         1 UNK         0.0814 
    101 H101      -75.5877   25.1679  -77.7373 H         1 UNK         0.3105 
    102 H102      -75.6429   28.6701  -76.9485 H         1 UNK         0.0547 
    103 H103      -77.0242   28.4500  -78.9419 H         1 UNK         0.0837 
    104 H104      -78.0473   28.1751  -77.5419 H         1 UNK         0.0837 
    105 H105      -77.4980   26.8165  -78.5266 H         1 UNK         0.0837 
    106 H106      -77.0745   26.3565  -75.9745 H         1 UNK         0.3020 
    107 H107      -74.8416   25.5149  -73.4003 H         1 UNK         0.1245 
    108 H108      -77.2634   27.3033  -72.9127 H         1 UNK         0.0781 
    109 H109      -75.6245   27.5972  -72.3706 H         1 UNK         0.0781 
    110 H110      -75.4359   27.3142  -69.5719 H         1 UNK         0.0836 
    111 H111      -76.9582   26.8197  -68.8739 H         1 UNK         0.0836 
    112 H112      -77.6408   24.9290  -73.9109 H         1 UNK         0.3022 
    113 H113      -76.7842   22.0775  -75.9803 H         1 UNK         0.0747 
    114 H114      -76.9257   21.4502  -73.5665 H         1 UNK         0.0793 
    115 H115      -78.3005   22.5236  -73.3570 H         1 UNK         0.0793 
    116 H116      -78.4297   21.1181  -74.4110 H         1 UNK         0.0793 
    117 H117      -79.3432   23.1178  -75.6337 H         1 UNK         0.3047 
    118 H118      -79.4440   25.5411  -78.1411 H         1 UNK         0.0822 
    119 H119      -80.8165   24.0578  -79.5771 H         1 UNK         0.0807 
    120 H120      -80.1624   22.6333  -78.7686 H         1 UNK         0.0807 
    121 H121      -79.1114   23.6660  -79.7235 H         1 UNK         0.0807 
    122 H122      -81.1606   25.6095  -76.7984 H         1 UNK         0.2946 
    123 H123      -83.3907   24.7810  -76.2757 H         1 UNK         0.1144 
    124 H124      -83.1714   22.3891  -74.3653 H         1 UNK         0.0793 
    125 H125      -83.9746   22.3787  -75.9292 H         1 UNK         0.0793 
    126 H126      -84.6079   23.3768  -74.6314 H         1 UNK         0.0793 
    127 H127      -82.4148   24.5444  -73.5242 H         1 UNK         0.2896 
@<TRIPOS>BOND
     1    1    2 1    
     2    1   67 1    
     3    1   68 1    
     4    1   69 1    
     5    2    3 2    
     6    2    4 am   BACKBONE|DICT|INTERRES
     7    4    5 1    
     8    4   70 1    
     9    5    6 1    
    10    5   65 1    
    11    5   71 1    
    12    6    7 1    
    13    6   72 1    
    14    6   73 1    
    15    7    8 1    
    16    8    9 1    
    17    8   74 1    
    18    8   75 1    
    19    9   10 ar   
    20    9   14 ar   
    21   10   11 ar   
    22   10   76 1    
    23   11   12 ar   
    24   11   48 1    
    25   12   13 ar   
    26   12   77 1    
    27   13   14 ar   
    28   13   15 1    
    29   14   78 1    
    30   15   16 1    
    31   15   79 1    
    32   15   80 1    
    33   16   17 1    
    34   17   18 1    
    35   17   81 1    
    36   17   82 1    
    37   18   19 1    
    38   18   22 1    
    39   18   83 1    
    40   19   20 am   BACKBONE|DICT|INTERRES
    41   19   21 2    
    42   20   84 1    
    43   20   85 1    
    44   22   23 am   BACKBONE|DICT|INTERRES
    45   22   86 1    
    46   23   24 2    
    47   23   25 1    
    48   25   26 1    
    49   25   27 1    
    50   25   87 1    
    51   26   88 1    
    52   26   89 1    
    53   26   90 1    
    54   27   28 am   BACKBONE|DICT|INTERRES
    55   27   91 1    
    56   28   29 2    
    57   28   30 1    
    58   30   31 1    
    59   30   32 1    
    60   30   92 1    
    61   31   93 1    
    62   31   94 1    
    63   31   95 1    
    64   32   33 am   BACKBONE|DICT|INTERRES
    65   32   96 1    
    66   33   34 2    
    67   33   35 1    
    68   35   36 1    
    69   35   37 1    
    70   35   97 1    
    71   36   98 1    
    72   36   99 1    
    73   36  100 1    
    74   37   38 am   BACKBONE|DICT|INTERRES
    75   37  101 1    
    76   38   39 2    
    77   38   40 1    
    78   40   41 1    
    79   40   42 1    
    80   40  102 1    
    81   41  103 1    
    82   41  104 1    
    83   41  105 1    
    84   42   43 am   BACKBONE|DICT|INTERRES
    85   42  106 1    
    86   43   44 2    
    87   43   45 1    
    88   45   46 1    
    89   45   49 1    
    90   45  107 1    
    91   46   47 1    
    92   46  108 1    
    93   46  109 1    
    94   47   48 1    
    95   48  110 1    
    96   48  111 1    
    97   49   50 am   BACKBONE|DICT|INTERRES
    98   49  112 1    
    99   50   51 2    
   100   50   52 1    
   101   52   53 1    
   102   52   54 1    
   103   52  113 1    
   104   53  114 1    
   105   53  115 1    
   106   53  116 1    
   107   54   55 am   BACKBONE|DICT|INTERRES
   108   54  117 1    
   109   55   56 2    
   110   55   57 1    
   111   57   58 1    
   112   57   59 1    
   113   57  118 1    
   114   58  119 1    
   115   58  120 1    
   116   58  121 1    
   117   59   60 am   BACKBONE|DICT|INTERRES
   118   59  122 1    
   119   60   61 2    
   120   60   62 1    
   121   62   63 1    
   122   62   64 1    
   123   62  123 1    
   124   63  124 1    
   125   63  125 1    
   126   63  126 1    
   127   64   65 am   BACKBONE|DICT|INTERRES
   128   64  127 1    
   129   65   66 2    
@<TRIPOS>SUBSTRUCTURE
     1 UNK         1 GROUP             0       ****    0 ROOT    
