@<TRIPOS>MOLECULE
3R135
127   129    1
SMALL
USER_CHARGES


@<TRIPOS>ATOM
      1 CA        -82.3068   30.3000  -76.5082 C.3       0 UNK        -0.1998 
      2 C         -82.4926   29.4320  -75.2722 C.2       0 UNK         0.4909 
      3 O         -83.6299   29.1624  -74.8844 O.2       0 UNK        -0.5240 
      4 N         -81.3786   29.0144  -74.6557 N.am      1 UNK        -0.4739 
      5 CA        -81.2758   28.1226  -73.4928 C.3       1 UNK         0.0864 
      6 C6        -82.1327   28.5782  -72.2806 C.3       11 UNK        -0.0881 
      7 S7        -81.3576   28.1884  -70.6741 S.3       11 UNK        -0.2682 
      8 C8        -80.5525   29.7667  -70.2410 C.3       11 UNK         0.0289 
      9 C9        -79.1361   29.8498  -70.7931 C.ar      11 UNK        -0.0687 
     10 C10       -78.8990   30.3466  -72.0802 C.ar      11 UNK        -0.0823 
     11 C11       -77.5971   30.3949  -72.5907 C.ar      11 UNK        -0.0830 
     12 C12       -76.5295   29.9996  -71.7839 C.ar      11 UNK        -0.1021 
     13 C13       -76.7503   29.5067  -70.4974 C.ar      11 UNK        -0.0753 
     14 C14       -78.0568   29.4290  -70.0076 C.ar      11 UNK        -0.0933 
     15 C15       -75.5696   29.0669  -69.6436 C.3       11 UNK         0.0166 
     16 S16       -75.2943   27.2660  -69.7002 S.3       11 UNK        -0.2615 
     17 C17       -74.8726   26.9792  -71.4537 C.3       11 UNK        -0.0865 
     18 CA        -73.3917   27.3020  -71.8042 C.3       10 UNK         0.0862 
     19 C         -72.4405   26.0961  -71.5718 C.2       10 UNK         0.5551 
     20 N         -72.3458   25.6148  -70.3407 N.am      10 UNK        -0.7319 
     21 O         -71.7977   25.5841  -72.4859 O.2       10 UNK        -0.5018 
     22 N         -73.2843   27.8123  -73.1769 N.am      10 UNK        -0.4509 
     23 C         -73.0744   29.0868  -73.5273 C.2       10 UNK         0.4899 
     24 O         -72.9718   30.0086  -72.7171 O.2       10 UNK        -0.4839 
     25 CA        -73.0060   29.3959  -75.0392 C.3       9 UNK         0.0222 
     26 CB        -72.1997   30.6752  -75.3520 C.3       9 UNK        -0.1966 
     27 N         -72.5498   28.2641  -75.8628 N.am      9 UNK        -0.4218 
     28 C         -71.3473   27.6702  -75.7974 C.2       9 UNK         0.5020 
     29 O         -70.4493   28.0453  -75.0415 O.2       9 UNK        -0.5274 
     30 CA        -71.0760   26.4692  -76.7199 C.3       8 UNK         0.0270 
     31 CB        -70.2743   25.3657  -75.9985 C.3       8 UNK        -0.1976 
     32 N         -72.2833   25.8723  -77.3056 N.am      8 UNK        -0.4313 
     33 C         -72.3040   25.3203  -78.5287 C.2       8 UNK         0.5041 
     34 O         -71.3878   25.4343  -79.3451 O.2       8 UNK        -0.5577 
     35 CA        -73.5116   24.4455  -78.9017 C.3       7 UNK         0.0284 
     36 CB        -73.4294   23.0843  -78.1920 C.3       7 UNK        -0.1958 
     37 N         -74.8044   25.0708  -78.6299 N.am      7 UNK        -0.4454 
     38 C         -75.3276   26.0669  -79.3579 C.2       7 UNK         0.5089 
     39 O         -74.7603   26.5903  -80.3174 O.2       7 UNK        -0.5125 
     40 CA        -76.7254   26.5646  -78.9471 C.3       6 UNK         0.0408 
     41 CB        -77.8233   25.6632  -79.5341 C.3       6 UNK        -0.1791 
     42 N         -76.8905   26.6599  -77.4957 N.am      6 UNK        -0.4762 
     43 C         -76.2066   27.5111  -76.7180 C.2       6 UNK         0.5007 
     44 O         -75.3762   28.3135  -77.1445 O.2       6 UNK        -0.5032 
     45 CA        -76.4363   27.3911  -75.1999 C.3       5 UNK         0.0783 
     46 C46       -77.7507   28.0593  -74.7172 C.3       11 UNK        -0.0857 
     47 S47       -78.0828   29.7707  -75.2821 S.3       11 UNK        -0.2512 
     48 C48       -77.3238   30.8475  -74.0180 C.3       11 UNK         0.0225 
     49 N         -76.3639   25.9808  -74.7929 N.am      5 UNK        -0.4615 
     50 C         -75.2458   25.2379  -74.8162 C.2       4 UNK         0.5053 
     51 O         -74.1396   25.6990  -75.0989 O.2       4 UNK        -0.5105 
     52 CA        -75.3644   23.7314  -74.5065 C.3       4 UNK         0.0263 
     53 CB        -75.0572   23.4421  -73.0306 C.3       4 UNK        -0.1981 
     54 N         -76.6644   23.1507  -74.8451 N.am      4 UNK        -0.4224 
     55 C         -77.1559   23.0394  -76.0867 C.2       3 UNK         0.4895 
     56 O         -76.5355   23.3712  -77.0958 O.2       3 UNK        -0.5091 
     57 CA        -78.6064   22.5321  -76.2224 C.3       3 UNK         0.0250 
     58 CB        -78.6223   21.0080  -76.4178 C.3       3 UNK        -0.1996 
     59 N         -79.4963   22.8942  -75.1057 N.am      3 UNK        -0.4254 
     60 C         -79.6866   24.1432  -74.6556 C.2       2 UNK         0.5004 
     61 O         -79.0869   25.1141  -75.1195 O.2       2 UNK        -0.5226 
     62 CA        -80.6467   24.3312  -73.4629 C.3       2 UNK         0.0269 
     63 CB        -80.1177   23.6029  -72.2142 C.3       2 UNK        -0.1926 
     64 N         -80.8150   25.7500  -73.1287 N.am      2 UNK        -0.4687 
     65 C         -81.4856   26.6395  -73.8728 C.2       1 UNK         0.5165 
     66 O         -82.2031   26.3203  -74.8245 O.2       1 UNK        -0.5079 
     67 H67       -82.7917   31.2653  -76.3654 H         1 UNK         0.0900 
     68 H68       -81.2541   30.4790  -76.7275 H         1 UNK         0.0900 
     69 H69       -82.7562   29.8174  -77.3756 H         1 UNK         0.0900 
     70 H70       -80.4868   29.2743  -75.0575 H         1 UNK         0.2959 
     71 H71       -80.2285   28.2052  -73.2046 H         1 UNK         0.1079 
     72 H72       -82.3062   29.6542  -72.3219 H         1 UNK         0.0837 
     73 H73       -83.1272   28.1287  -72.3128 H         1 UNK         0.0837 
     74 H74       -80.5256   29.8503  -69.1534 H         1 UNK         0.0685 
     75 H75       -81.1484   30.6122  -70.5871 H         1 UNK         0.0685 
     76 H76       -79.7283   30.6675  -72.6958 H         1 UNK         0.1434 
     77 H77       -75.5199   30.0539  -72.1639 H         1 UNK         0.1329 
     78 H78       -78.2324   29.0404  -69.0136 H         1 UNK         0.1335 
     79 H79       -75.7407   29.3625  -68.6075 H         1 UNK         0.0680 
     80 H80       -74.6594   29.5806  -69.9578 H         1 UNK         0.0680 
     81 H81       -75.5562   27.5570  -72.0726 H         1 UNK         0.1032 
     82 H82       -75.1111   25.9438  -71.6904 H         1 UNK         0.1032 
     83 H83       -73.0319   28.0802  -71.1290 H         1 UNK         0.0461 
     84 H84       -71.7369   24.8318  -70.1627 H         1 UNK         0.3453 
     85 H85       -72.8899   26.0136  -69.5906 H         1 UNK         0.3453 
     86 H86       -73.2953   27.0978  -73.8988 H         1 UNK         0.2984 
     87 H87       -74.0330   29.5980  -75.3403 H         1 UNK         0.0554 
     88 H88       -72.6440   31.5460  -74.8684 H         1 UNK         0.0847 
     89 H89       -72.1782   30.8790  -76.4224 H         1 UNK         0.0847 
     90 H90       -71.1695   30.6035  -75.0022 H         1 UNK         0.0847 
     91 H91       -73.2305   27.9115  -76.5249 H         1 UNK         0.3141 
     92 H92       -70.4489   26.8719  -77.5180 H         1 UNK         0.0743 
     93 H93       -69.3351   25.7504  -75.5991 H         1 UNK         0.0784 
     94 H94       -70.8385   24.9482  -75.1632 H         1 UNK         0.0784 
     95 H95       -70.0212   24.5488  -76.6743 H         1 UNK         0.0784 
     96 H96       -73.0635   25.7263  -76.6678 H         1 UNK         0.3213 
     97 H97       -73.4571   24.2559  -79.9762 H         1 UNK         0.0855 
     98 H98       -73.4703   23.1898  -77.1088 H         1 UNK         0.0814 
     99 H99       -72.4951   22.5756  -78.4333 H         1 UNK         0.0814 
    100 H100      -74.2440   22.4269  -78.4965 H         1 UNK         0.0814 
    101 H101      -75.3850   24.6378  -77.9155 H         1 UNK         0.3105 
    102 H102      -76.8553   27.5664  -79.3621 H         1 UNK         0.0547 
    103 H103      -77.7644   24.6452  -79.1483 H         1 UNK         0.0837 
    104 H104      -77.7377   25.6041  -80.6199 H         1 UNK         0.0837 
    105 H105      -78.8172   26.0502  -79.3093 H         1 UNK         0.0837 
    106 H106      -77.5294   26.0096  -77.0576 H         1 UNK         0.3020 
    107 H107      -75.6167   27.9173  -74.7128 H         1 UNK         0.1245 
    108 H108      -77.8124   27.9985  -73.6311 H         1 UNK         0.0781 
    109 H109      -78.6002   27.4874  -75.0828 H         1 UNK         0.0781 
    110 H110      -77.6992   31.8632  -74.1488 H         1 UNK         0.0836 
    111 H111      -76.2506   30.8953  -74.2099 H         1 UNK         0.0836 
    112 H112      -77.2577   25.5219  -74.6418 H         1 UNK         0.3022 
    113 H113      -74.6093   23.2214  -75.1060 H         1 UNK         0.0747 
    114 H114      -75.8230   23.8478  -72.3690 H         1 UNK         0.0793 
    115 H115      -74.9944   22.3696  -72.8456 H         1 UNK         0.0793 
    116 H116      -74.0982   23.8707  -72.7383 H         1 UNK         0.0793 
    117 H117      -77.2467   22.8538  -74.0761 H         1 UNK         0.3047 
    118 H118      -79.0185   22.9945  -77.1218 H         1 UNK         0.0822 
    119 H119      -79.6266   20.6453  -76.6373 H         1 UNK         0.0807 
    120 H120      -78.2601   20.4830  -75.5329 H         1 UNK         0.0807 
    121 H121      -77.9855   20.7149  -77.2540 H         1 UNK         0.0807 
    122 H122      -80.0096   22.1379  -74.6756 H         1 UNK         0.2946 
    123 H123      -81.6185   23.9166  -73.7401 H         1 UNK         0.1144 
    124 H124      -80.7821   23.7481  -71.3619 H         1 UNK         0.0793 
    125 H125      -79.1267   23.9583  -71.9279 H         1 UNK         0.0793 
    126 H126      -80.0448   22.5273  -72.3782 H         1 UNK         0.0793 
    127 H127      -80.2637   26.0928  -72.3550 H         1 UNK         0.2896 
@<TRIPOS>BOND
     1    1    2 1    
     2    1   67 1    
     3    1   68 1    
     4    1   69 1    
     5    2    3 2    
     6    2    4 am   BACKBONE|DICT|INTERRES
     7    4    5 1    
     8    4   70 1    
     9    5    6 1    
    10    5   65 1    
    11    5   71 1    
    12    6    7 1    
    13    6   72 1    
    14    6   73 1    
    15    7    8 1    
    16    8    9 1    
    17    8   74 1    
    18    8   75 1    
    19    9   10 ar   
    20    9   14 ar   
    21   10   11 ar   
    22   10   76 1    
    23   11   12 ar   
    24   11   48 1    
    25   12   13 ar   
    26   12   77 1    
    27   13   14 ar   
    28   13   15 1    
    29   14   78 1    
    30   15   16 1    
    31   15   79 1    
    32   15   80 1    
    33   16   17 1    
    34   17   18 1    
    35   17   81 1    
    36   17   82 1    
    37   18   19 1    
    38   18   22 1    
    39   18   83 1    
    40   19   20 am   BACKBONE|DICT|INTERRES
    41   19   21 2    
    42   20   84 1    
    43   20   85 1    
    44   22   23 am   BACKBONE|DICT|INTERRES
    45   22   86 1    
    46   23   24 2    
    47   23   25 1    
    48   25   26 1    
    49   25   27 1    
    50   25   87 1    
    51   26   88 1    
    52   26   89 1    
    53   26   90 1    
    54   27   28 am   BACKBONE|DICT|INTERRES
    55   27   91 1    
    56   28   29 2    
    57   28   30 1    
    58   30   31 1    
    59   30   32 1    
    60   30   92 1    
    61   31   93 1    
    62   31   94 1    
    63   31   95 1    
    64   32   33 am   BACKBONE|DICT|INTERRES
    65   32   96 1    
    66   33   34 2    
    67   33   35 1    
    68   35   36 1    
    69   35   37 1    
    70   35   97 1    
    71   36   98 1    
    72   36   99 1    
    73   36  100 1    
    74   37   38 am   BACKBONE|DICT|INTERRES
    75   37  101 1    
    76   38   39 2    
    77   38   40 1    
    78   40   41 1    
    79   40   42 1    
    80   40  102 1    
    81   41  103 1    
    82   41  104 1    
    83   41  105 1    
    84   42   43 am   BACKBONE|DICT|INTERRES
    85   42  106 1    
    86   43   44 2    
    87   43   45 1    
    88   45   46 1    
    89   45   49 1    
    90   45  107 1    
    91   46   47 1    
    92   46  108 1    
    93   46  109 1    
    94   47   48 1    
    95   48  110 1    
    96   48  111 1    
    97   49   50 am   BACKBONE|DICT|INTERRES
    98   49  112 1    
    99   50   51 2    
   100   50   52 1    
   101   52   53 1    
   102   52   54 1    
   103   52  113 1    
   104   53  114 1    
   105   53  115 1    
   106   53  116 1    
   107   54   55 am   BACKBONE|DICT|INTERRES
   108   54  117 1    
   109   55   56 2    
   110   55   57 1    
   111   57   58 1    
   112   57   59 1    
   113   57  118 1    
   114   58  119 1    
   115   58  120 1    
   116   58  121 1    
   117   59   60 am   BACKBONE|DICT|INTERRES
   118   59  122 1    
   119   60   61 2    
   120   60   62 1    
   121   62   63 1    
   122   62   64 1    
   123   62  123 1    
   124   63  124 1    
   125   63  125 1    
   126   63  126 1    
   127   64   65 am   BACKBONE|DICT|INTERRES
   128   64  127 1    
   129   65   66 2    
@<TRIPOS>SUBSTRUCTURE
     1 UNK         1 GROUP             0       ****    0 ROOT    
