@<TRIPOS>MOLECULE
3R135
127   129    1
SMALL
USER_CHARGES


@<TRIPOS>ATOM
      1 CA        -84.5141   29.2164  -78.0501 C.3       0 UNK        -0.1998 
      2 C         -83.9609   28.7243  -76.7206 C.2       0 UNK         0.4909 
      3 O         -84.7314   28.2738  -75.8721 O.2       0 UNK        -0.5240 
      4 N         -82.6349   28.8166  -76.5397 N.am      1 UNK        -0.4739 
      5 CA        -81.8709   28.3616  -75.3682 C.3       1 UNK         0.0864 
      6 C6        -82.3172   29.0802  -74.0562 C.3       11 UNK        -0.0881 
      7 S7        -81.1594   29.1275  -72.6350 S.3       11 UNK        -0.2682 
      8 C8        -79.4885   29.1806  -73.3576 C.3       11 UNK         0.0289 
      9 C9        -78.4262   29.0949  -72.2758 C.ar      11 UNK        -0.0687 
     10 C10       -78.2451   27.8968  -71.5804 C.ar      11 UNK        -0.0823 
     11 C11       -77.2588   27.7838  -70.5985 C.ar      11 UNK        -0.0830 
     12 C12       -76.4531   28.8874  -70.3070 C.ar      11 UNK        -0.1021 
     13 C13       -76.6212   30.0909  -70.9990 C.ar      11 UNK        -0.0753 
     14 C14       -77.6126   30.1918  -71.9803 C.ar      11 UNK        -0.0933 
     15 C15       -75.7246   31.2802  -70.6947 C.3       11 UNK         0.0166 
     16 S16       -74.3578   31.4038  -71.8882 S.3       11 UNK        -0.2615 
     17 C17       -73.3676   29.9338  -71.4492 C.3       11 UNK        -0.0865 
     18 CA        -72.0352   29.8864  -72.2345 C.3       10 UNK         0.0862 
     19 C         -71.1082   28.7693  -71.6899 C.2       10 UNK         0.5551 
     20 N         -70.1899   29.1080  -70.7956 N.am      10 UNK        -0.7319 
     21 O         -71.2414   27.5973  -72.0353 O.2       10 UNK        -0.5018 
     22 N         -72.2774   29.7079  -73.6700 N.am      10 UNK        -0.4509 
     23 C         -71.4901   30.1817  -74.6405 C.2       10 UNK         0.4899 
     24 O         -70.5065   30.8984  -74.4443 O.2       10 UNK        -0.4839 
     25 CA        -71.8794   29.7646  -76.0700 C.3       9 UNK         0.0222 
     26 CB        -70.9240   30.3152  -77.1505 C.3       9 UNK        -0.1966 
     27 N         -72.0330   28.3104  -76.1921 N.am      9 UNK        -0.4218 
     28 C         -71.0931   27.3717  -75.9833 C.2       9 UNK         0.5020 
     29 O         -69.9242   27.6237  -75.6860 O.2       9 UNK        -0.5274 
     30 CA        -71.5073   25.8924  -76.1232 C.3       8 UNK         0.0270 
     31 CB        -71.5848   25.2312  -74.7366 C.3       8 UNK        -0.1976 
     32 N         -72.7771   25.6812  -76.8231 N.am      8 UNK        -0.4313 
     33 C         -73.0068   25.9578  -78.1141 C.2       8 UNK         0.5041 
     34 O         -72.1374   26.3401  -78.8980 O.2       8 UNK        -0.5577 
     35 CA        -74.4584   25.8265  -78.6079 C.3       7 UNK         0.0284 
     36 CB        -74.7052   24.4225  -79.1800 C.3       7 UNK        -0.1958 
     37 N         -75.4676   26.1247  -77.5839 N.am      7 UNK        -0.4454 
     38 C         -75.6105   27.3004  -76.9518 C.2       7 UNK         0.5089 
     39 O         -74.8709   28.2693  -77.1227 O.2       7 UNK        -0.5125 
     40 CA        -76.7533   27.3909  -75.9280 C.3       6 UNK         0.0408 
     41 CB        -78.1163   27.4599  -76.6398 C.3       6 UNK        -0.1791 
     42 N         -76.7215   26.2490  -75.0135 N.am      6 UNK        -0.4762 
     43 C         -75.8076   26.0845  -74.0429 C.2       6 UNK         0.5007 
     44 O         -74.9567   26.9287  -73.7594 O.2       6 UNK        -0.5032 
     45 CA        -75.8007   24.7188  -73.3201 C.3       5 UNK         0.0783 
     46 C46       -76.6525   24.7173  -72.0277 C.3       11 UNK        -0.0857 
     47 S47       -75.7753   25.4416  -70.6014 S.3       11 UNK        -0.2512 
     48 C48       -77.0681   26.4765  -69.8451 C.3       11 UNK         0.0225 
     49 N         -76.2096   23.6326  -74.2158 N.am      5 UNK        -0.4615 
     50 C         -75.4590   23.1676  -75.2233 C.2       4 UNK         0.5053 
     51 O         -74.3406   23.6010  -75.4935 O.2       4 UNK        -0.5105 
     52 CA        -76.0643   22.0610  -76.1031 C.3       4 UNK         0.0263 
     53 CB        -75.7157   20.6767  -75.5347 C.3       4 UNK        -0.1981 
     54 N         -77.5148   22.1644  -76.2764 N.am      4 UNK        -0.4224 
     55 C         -78.1651   23.2140  -76.7985 C.2       3 UNK         0.4895 
     56 O         -77.6040   24.2359  -77.1945 O.2       3 UNK        -0.5091 
     57 CA        -79.7004   23.1214  -76.8763 C.3       3 UNK         0.0250 
     58 CB        -80.2406   21.6786  -76.7537 C.3       3 UNK        -0.1996 
     59 N         -80.3904   23.9843  -75.9093 N.am      3 UNK        -0.4254 
     60 C         -80.1788   24.0953  -74.5901 C.2       2 UNK         0.5004 
     61 O         -79.2124   23.6049  -74.0005 O.2       2 UNK        -0.5226 
     62 CA        -81.2554   24.8672  -73.7966 C.3       2 UNK         0.0269 
     63 CB        -81.0706   24.7292  -72.2735 C.3       2 UNK        -0.1926 
     64 N         -81.3406   26.2919  -74.1349 N.am      2 UNK        -0.4687 
     65 C         -81.8397   26.8130  -75.2639 C.2       1 UNK         0.5165 
     66 O         -82.2312   26.1155  -76.2043 O.2       1 UNK        -0.5079 
     67 H67       -83.7304   29.6027  -78.7015 H         1 UNK         0.0900 
     68 H68       -85.0164   28.4017  -78.5709 H         1 UNK         0.0900 
     69 H69       -85.2389   30.0128  -77.8832 H         1 UNK         0.0900 
     70 H70       -82.0718   29.1738  -77.2993 H         1 UNK         0.2959 
     71 H71       -80.8553   28.6699  -75.6053 H         1 UNK         0.1079 
     72 H72       -83.2587   28.6598  -73.6982 H         1 UNK         0.0837 
     73 H73       -82.5428   30.1231  -74.2854 H         1 UNK         0.0837 
     74 H74       -79.3357   28.3349  -74.0234 H         1 UNK         0.0685 
     75 H75       -79.3737   30.0870  -73.9542 H         1 UNK         0.0685 
     76 H76       -78.8805   27.0545  -71.8062 H         1 UNK         0.1434 
     77 H77       -75.6853   28.8044  -69.5498 H         1 UNK         0.1329 
     78 H78       -77.7399   31.1206  -72.5194 H         1 UNK         0.1335 
     79 H79       -75.3233   31.2150  -69.6821 H         1 UNK         0.0680 
     80 H80       -76.3106   32.1997  -70.7322 H         1 UNK         0.0680 
     81 H81       -73.9534   29.0320  -71.6408 H         1 UNK         0.1032 
     82 H82       -73.1793   29.9597  -70.3741 H         1 UNK         0.1032 
     83 H83       -71.5307   30.8433  -72.0823 H         1 UNK         0.0461 
     84 H84       -69.5879   28.3931  -70.4178 H         1 UNK         0.3453 
     85 H85       -70.0779   30.0651  -70.4987 H         1 UNK         0.3453 
     86 H86       -73.0348   29.0850  -73.9134 H         1 UNK         0.2984 
     87 H87       -72.8656   30.1917  -76.2580 H         1 UNK         0.0554 
     88 H88       -70.8981   31.4053  -77.1275 H         1 UNK         0.0847 
     89 H89       -71.2442   30.0195  -78.1496 H         1 UNK         0.0847 
     90 H90       -69.9014   29.9645  -77.0088 H         1 UNK         0.0847 
     91 H91       -72.9664   28.0034  -76.4484 H         1 UNK         0.3141 
     92 H92       -70.7248   25.3926  -76.6975 H         1 UNK         0.0743 
     93 H93       -70.6544   25.3670  -74.1832 H         1 UNK         0.0784 
     94 H94       -72.3855   25.6593  -74.1318 H         1 UNK         0.0784 
     95 H95       -71.7583   24.1581  -74.8161 H         1 UNK         0.0784 
     96 H96       -73.5278   25.2632  -76.2814 H         1 UNK         0.3213 
     97 H97       -74.5955   26.5516  -79.4128 H         1 UNK         0.0855 
     98 H98       -74.5209   23.6500  -78.4345 H         1 UNK         0.0814 
     99 H99       -74.0405   24.2245  -80.0218 H         1 UNK         0.0814 
    100 H100      -75.7282   24.3093  -79.5395 H         1 UNK         0.0814 
    101 H101      -76.1518   25.3955  -77.3910 H         1 UNK         0.3105 
    102 H102      -76.6285   28.3019  -75.3382 H         1 UNK         0.0547 
    103 H103      -78.2778   28.4509  -77.0649 H         1 UNK         0.0837 
    104 H104      -78.9369   27.2524  -75.9583 H         1 UNK         0.0837 
    105 H105      -78.1969   26.7458  -77.4595 H         1 UNK         0.0837 
    106 H106      -77.3310   25.4725  -75.2341 H         1 UNK         0.3020 
    107 H107      -74.7625   24.5206  -73.0413 H         1 UNK         0.1245 
    108 H108      -76.8944   23.6918  -71.7431 H         1 UNK         0.0781 
    109 H109      -77.6139   25.2021  -72.1927 H         1 UNK         0.0781 
    110 H110      -76.7857   26.6891  -68.8129 H         1 UNK         0.0836 
    111 H111      -78.0047   25.9190  -69.7913 H         1 UNK         0.0836 
    112 H112      -77.1543   23.2803  -74.0968 H         1 UNK         0.3022 
    113 H113      -75.6134   22.1420  -77.0927 H         1 UNK         0.0747 
    114 H114      -74.6368   20.5638  -75.4176 H         1 UNK         0.0793 
    115 H115      -76.1684   20.5160  -74.5553 H         1 UNK         0.0793 
    116 H116      -76.0523   19.8785  -76.1966 H         1 UNK         0.0793 
    117 H117      -78.0655   21.3825  -75.9532 H         1 UNK         0.3047 
    118 H118      -79.9705   23.4909  -77.8667 H         1 UNK         0.0822 
    119 H119      -81.3111   21.6475  -76.9580 H         1 UNK         0.0807 
    120 H120      -80.0890   21.2630  -75.7567 H         1 UNK         0.0807 
    121 H121      -79.7635   21.0118  -77.4737 H         1 UNK         0.0807 
    122 H122      -81.1619   24.5316  -76.2832 H         1 UNK         0.2946 
    123 H123      -82.2142   24.4069  -74.0471 H         1 UNK         0.1144 
    124 H124      -80.1224   25.1464  -71.9379 H         1 UNK         0.0793 
    125 H125      -81.0835   23.6801  -71.9746 H         1 UNK         0.0793 
    126 H126      -81.8711   25.2286  -71.7272 H         1 UNK         0.0793 
    127 H127      -81.0606   26.9391  -73.4094 H         1 UNK         0.2896 
@<TRIPOS>BOND
     1    1    2 1    
     2    1   67 1    
     3    1   68 1    
     4    1   69 1    
     5    2    3 2    
     6    2    4 am   BACKBONE|DICT|INTERRES
     7    4    5 1    
     8    4   70 1    
     9    5    6 1    
    10    5   65 1    
    11    5   71 1    
    12    6    7 1    
    13    6   72 1    
    14    6   73 1    
    15    7    8 1    
    16    8    9 1    
    17    8   74 1    
    18    8   75 1    
    19    9   10 ar   
    20    9   14 ar   
    21   10   11 ar   
    22   10   76 1    
    23   11   12 ar   
    24   11   48 1    
    25   12   13 ar   
    26   12   77 1    
    27   13   14 ar   
    28   13   15 1    
    29   14   78 1    
    30   15   16 1    
    31   15   79 1    
    32   15   80 1    
    33   16   17 1    
    34   17   18 1    
    35   17   81 1    
    36   17   82 1    
    37   18   19 1    
    38   18   22 1    
    39   18   83 1    
    40   19   20 am   BACKBONE|DICT|INTERRES
    41   19   21 2    
    42   20   84 1    
    43   20   85 1    
    44   22   23 am   BACKBONE|DICT|INTERRES
    45   22   86 1    
    46   23   24 2    
    47   23   25 1    
    48   25   26 1    
    49   25   27 1    
    50   25   87 1    
    51   26   88 1    
    52   26   89 1    
    53   26   90 1    
    54   27   28 am   BACKBONE|DICT|INTERRES
    55   27   91 1    
    56   28   29 2    
    57   28   30 1    
    58   30   31 1    
    59   30   32 1    
    60   30   92 1    
    61   31   93 1    
    62   31   94 1    
    63   31   95 1    
    64   32   33 am   BACKBONE|DICT|INTERRES
    65   32   96 1    
    66   33   34 2    
    67   33   35 1    
    68   35   36 1    
    69   35   37 1    
    70   35   97 1    
    71   36   98 1    
    72   36   99 1    
    73   36  100 1    
    74   37   38 am   BACKBONE|DICT|INTERRES
    75   37  101 1    
    76   38   39 2    
    77   38   40 1    
    78   40   41 1    
    79   40   42 1    
    80   40  102 1    
    81   41  103 1    
    82   41  104 1    
    83   41  105 1    
    84   42   43 am   BACKBONE|DICT|INTERRES
    85   42  106 1    
    86   43   44 2    
    87   43   45 1    
    88   45   46 1    
    89   45   49 1    
    90   45  107 1    
    91   46   47 1    
    92   46  108 1    
    93   46  109 1    
    94   47   48 1    
    95   48  110 1    
    96   48  111 1    
    97   49   50 am   BACKBONE|DICT|INTERRES
    98   49  112 1    
    99   50   51 2    
   100   50   52 1    
   101   52   53 1    
   102   52   54 1    
   103   52  113 1    
   104   53  114 1    
   105   53  115 1    
   106   53  116 1    
   107   54   55 am   BACKBONE|DICT|INTERRES
   108   54  117 1    
   109   55   56 2    
   110   55   57 1    
   111   57   58 1    
   112   57   59 1    
   113   57  118 1    
   114   58  119 1    
   115   58  120 1    
   116   58  121 1    
   117   59   60 am   BACKBONE|DICT|INTERRES
   118   59  122 1    
   119   60   61 2    
   120   60   62 1    
   121   62   63 1    
   122   62   64 1    
   123   62  123 1    
   124   63  124 1    
   125   63  125 1    
   126   63  126 1    
   127   64   65 am   BACKBONE|DICT|INTERRES
   128   64  127 1    
   129   65   66 2    
@<TRIPOS>SUBSTRUCTURE
     1 UNK         1 GROUP             0       ****    0 ROOT    
