@<TRIPOS>MOLECULE
3R135
127   129    1
SMALL
USER_CHARGES


@<TRIPOS>ATOM
      1 CA        -85.2499   23.8699  -70.8836 C.3       0 UNK        -0.1998 
      2 C         -84.8139   25.2869  -71.2244 C.2       0 UNK         0.4909 
      3 O         -85.5841   26.2276  -71.0291 O.2       0 UNK        -0.5240 
      4 N         -83.5827   25.4468  -71.7291 N.am      1 UNK        -0.4739 
      5 CA        -83.0080   26.7339  -72.1415 C.3       1 UNK         0.0864 
      6 C6        -81.4708   26.6197  -72.3162 C.3       11 UNK        -0.0881 
      7 S7        -80.6343   28.2419  -72.4164 S.3       11 UNK        -0.2682 
      8 C8        -79.5660   28.2229  -70.9450 C.3       11 UNK         0.0289 
      9 C9        -78.1902   27.6517  -71.2570 C.ar      11 UNK        -0.0687 
     10 C10       -77.9403   26.2828  -71.1308 C.ar      11 UNK        -0.0823 
     11 C11       -76.6601   25.7717  -71.3633 C.ar      11 UNK        -0.0830 
     12 C12       -75.6303   26.6410  -71.7389 C.ar      11 UNK        -0.1021 
     13 C13       -75.8652   28.0127  -71.8839 C.ar      11 UNK        -0.0753 
     14 C14       -77.1523   28.5079  -71.6356 C.ar      11 UNK        -0.0933 
     15 C15       -74.6902   28.9237  -72.2451 C.3       11 UNK         0.0166 
     16 S16       -75.1450   30.5439  -72.9558 S.3       11 UNK        -0.2615 
     17 C17       -73.5068   31.3280  -73.1318 C.3       11 UNK        -0.0865 
     18 CA        -73.0254   31.4182  -74.6039 C.3       10 UNK         0.0862 
     19 C         -71.7067   32.2445  -74.6880 C.2       10 UNK         0.5551 
     20 N         -70.5580   31.6465  -74.9852 N.am      10 UNK        -0.7319 
     21 O         -71.7310   33.4546  -74.4777 O.2       10 UNK        -0.5018 
     22 N         -72.9497   30.0915  -75.2339 N.am      10 UNK        -0.4509 
     23 C         -72.8111   29.8654  -76.5465 C.2       10 UNK         0.4899 
     24 O         -72.8837   30.7496  -77.4012 O.2       10 UNK        -0.4839 
     25 CA        -72.5375   28.4074  -76.9755 C.3       9 UNK         0.0222 
     26 CB        -71.6620   28.3241  -78.2426 C.3       9 UNK        -0.1966 
     27 N         -71.9765   27.5559  -75.9158 N.am      9 UNK        -0.4218 
     28 C         -70.8463   27.7430  -75.2139 C.2       9 UNK         0.5020 
     29 O         -70.1061   28.7183  -75.3477 O.2       9 UNK        -0.5274 
     30 CA        -70.5024   26.6790  -74.1621 C.3       8 UNK         0.0270 
     31 CB        -71.3579   26.8742  -72.8986 C.3       8 UNK        -0.1976 
     32 N         -70.7196   25.3305  -74.6869 N.am      8 UNK        -0.4313 
     33 C         -69.7511   24.4643  -75.0138 C.2       8 UNK         0.5041 
     34 O         -68.5493   24.6826  -74.8537 O.2       8 UNK        -0.5577 
     35 CA        -70.1897   23.1174  -75.6226 C.3       7 UNK         0.0284 
     36 CB        -70.2710   22.0375  -74.5313 C.3       7 UNK        -0.1958 
     37 N         -71.4729   23.1870  -76.3270 N.am      7 UNK        -0.4454 
     38 C         -71.6855   23.8713  -77.4595 C.2       7 UNK         0.5089 
     39 O         -70.7955   24.4404  -78.0913 O.2       7 UNK        -0.5125 
     40 CA        -73.1376   23.9622  -77.9652 C.3       6 UNK         0.0408 
     41 CB        -73.3635   22.9667  -79.1142 C.3       6 UNK        -0.1791 
     42 N         -74.1829   23.7687  -76.9485 N.am      6 UNK        -0.4762 
     43 C         -74.3466   24.5100  -75.8431 C.2       6 UNK         0.5007 
     44 O         -73.5333   25.3514  -75.4538 O.2       6 UNK        -0.5032 
     45 CA        -75.6230   24.2750  -75.0160 C.3       5 UNK         0.0783 
     46 C46       -75.2701   23.6113  -73.6636 C.3       11 UNK        -0.0857 
     47 S47       -76.7415   23.2939  -72.6321 S.3       11 UNK        -0.2512 
     48 C48       -76.3840   24.2892  -71.1496 C.3       11 UNK         0.0225 
     49 N         -76.3448   25.5388  -74.8471 N.am      5 UNK        -0.4615 
     50 C         -76.9256   26.2211  -75.8405 C.2       4 UNK         0.5053 
     51 O         -76.9309   25.8553  -77.0187 O.2       4 UNK        -0.5105 
     52 CA        -77.5857   27.5552  -75.4566 C.3       4 UNK         0.0263 
     53 CB        -76.6013   28.7111  -75.6953 C.3       4 UNK        -0.1981 
     54 N         -78.8171   27.8087  -76.2107 N.am      4 UNK        -0.4224 
     55 C         -79.9110   27.0378  -76.1613 C.2       3 UNK         0.4895 
     56 O         -80.0143   26.0247  -75.4635 O.2       3 UNK        -0.5091 
     57 CA        -81.0923   27.4590  -77.0430 C.3       3 UNK         0.0250 
     58 CB        -80.9516   26.8985  -78.4702 C.3       3 UNK        -0.1996 
     59 N         -82.3007   26.9442  -76.4120 N.am      3 UNK        -0.4254 
     60 C         -83.5511   27.3859  -76.5794 C.2       2 UNK         0.5004 
     61 O         -83.8749   28.2506  -77.3942 O.2       2 UNK        -0.5226 
     62 CA        -84.6185   26.7699  -75.6547 C.3       2 UNK         0.0269 
     63 CB        -85.2532   25.5314  -76.3075 C.3       2 UNK        -0.1926 
     64 N         -84.0793   26.4049  -74.3383 N.am      2 UNK        -0.4687 
     65 C         -83.6893   27.2950  -73.4115 C.2       1 UNK         0.5165 
     66 O         -83.8548   28.5103  -73.5297 O.2       1 UNK        -0.5079 
     67 H67       -84.4699   23.1396  -71.0982 H         1 UNK         0.0900 
     68 H68       -86.1342   23.6008  -71.4606 H         1 UNK         0.0900 
     69 H69       -85.4987   23.7984  -69.8251 H         1 UNK         0.0900 
     70 H70       -82.9930   24.6364  -71.8572 H         1 UNK         0.2959 
     71 H71       -83.2030   27.4458  -71.3358 H         1 UNK         0.1079 
     72 H72       -81.0501   26.0610  -71.4798 H         1 UNK         0.0837 
     73 H73       -81.2227   26.0373  -73.2033 H         1 UNK         0.0837 
     74 H74       -80.0400   27.6687  -70.1336 H         1 UNK         0.0685 
     75 H75       -79.4634   29.2470  -70.5827 H         1 UNK         0.0685 
     76 H76       -78.7364   25.6167  -70.8282 H         1 UNK         0.1434 
     77 H77       -74.6334   26.2524  -71.8956 H         1 UNK         0.1329 
     78 H78       -77.3553   29.5662  -71.7151 H         1 UNK         0.1335 
     79 H79       -74.0478   28.4123  -72.9617 H         1 UNK         0.0680 
     80 H80       -74.0955   29.0856  -71.3450 H         1 UNK         0.0680 
     81 H81       -73.5851   32.3281  -72.7004 H         1 UNK         0.1032 
     82 H82       -72.7730   30.7998  -72.5201 H         1 UNK         0.1032 
     83 H83       -73.7737   31.9886  -75.1578 H         1 UNK         0.0461 
     84 H84       -69.7165   32.1979  -75.0371 H         1 UNK         0.3453 
     85 H85       -70.5142   30.6463  -75.1533 H         1 UNK         0.3453 
     86 H86       -72.8740   29.3063  -74.6081 H         1 UNK         0.2984 
     87 H87       -73.5112   27.9784  -77.2173 H         1 UNK         0.0554 
     88 H88       -71.4974   27.2891  -78.5430 H         1 UNK         0.0847 
     89 H89       -70.6867   28.7870  -78.0886 H         1 UNK         0.0847 
     90 H90       -72.1350   28.8321  -79.0838 H         1 UNK         0.0847 
     91 H91       -72.5403   26.7330  -75.7002 H         1 UNK         0.3141 
     92 H92       -69.4553   26.8184  -73.8850 H         1 UNK         0.0743 
     93 H93       -71.2729   27.8929  -72.5171 H         1 UNK         0.0784 
     94 H94       -72.4128   26.6768  -73.0896 H         1 UNK         0.0784 
     95 H95       -71.0363   26.2035  -72.1017 H         1 UNK         0.0784 
     96 H96       -71.6803   25.0770  -74.8945 H         1 UNK         0.3213 
     97 H97       -69.4250   22.8201  -76.3438 H         1 UNK         0.0855 
     98 H98       -71.0320   22.2716  -73.7856 H         1 UNK         0.0814 
     99 H99       -69.3195   21.9426  -74.0061 H         1 UNK         0.0814 
    100 H100      -70.5030   21.0602  -74.9551 H         1 UNK         0.0814 
    101 H101      -72.2633   22.7343  -75.8921 H         1 UNK         0.3105 
    102 H102      -73.2670   24.9710  -78.3633 H         1 UNK         0.0547 
    103 H103      -73.2889   21.9332  -78.7737 H         1 UNK         0.0837 
    104 H104      -74.3439   23.1015  -79.5715 H         1 UNK         0.0837 
    105 H105      -72.6217   23.1035  -79.9026 H         1 UNK         0.0837 
    106 H106      -74.8960   23.0914  -77.1803 H         1 UNK         0.3020 
    107 H107      -76.2792   23.5978  -75.5673 H         1 UNK         0.1245 
    108 H108      -74.5522   24.2175  -73.1090 H         1 UNK         0.0781 
    109 H109      -74.7789   22.6511  -73.8326 H         1 UNK         0.0781 
    110 H110      -75.3514   24.1303  -70.8348 H         1 UNK         0.0836 
    111 H111      -77.0019   23.9201  -70.3295 H         1 UNK         0.0836 
    112 H112      -76.3862   25.9022  -73.9051 H         1 UNK         0.3022 
    113 H113      -77.8457   27.5262  -74.3960 H         1 UNK         0.0747 
    114 H114      -75.6651   28.5403  -75.1628 H         1 UNK         0.0793 
    115 H115      -77.0064   29.6586  -75.3399 H         1 UNK         0.0793 
    116 H116      -76.3550   28.8225  -76.7520 H         1 UNK         0.0793 
    117 H117      -78.8065   28.6009  -76.8362 H         1 UNK         0.3047 
    118 H118      -81.1426   28.5496  -77.0729 H         1 UNK         0.0822 
    119 H119      -80.0392   27.2612  -78.9453 H         1 UNK         0.0807 
    120 H120      -81.7872   27.2006  -79.1017 H         1 UNK         0.0807 
    121 H121      -80.9087   25.8085  -78.4701 H         1 UNK         0.0807 
    122 H122      -82.1149   26.2459  -75.7024 H         1 UNK         0.2946 
    123 H123      -85.3989   27.5209  -75.5101 H         1 UNK         0.1144 
    124 H124      -85.6822   25.7807  -77.2791 H         1 UNK         0.0793 
    125 H125      -86.0586   25.1280  -75.6934 H         1 UNK         0.0793 
    126 H126      -84.5221   24.7380  -76.4682 H         1 UNK         0.0793 
    127 H127      -83.9433   25.4221  -74.1503 H         1 UNK         0.2896 
@<TRIPOS>BOND
     1    1    2 1    
     2    1   67 1    
     3    1   68 1    
     4    1   69 1    
     5    2    3 2    
     6    2    4 am   BACKBONE|DICT|INTERRES
     7    4    5 1    
     8    4   70 1    
     9    5    6 1    
    10    5   65 1    
    11    5   71 1    
    12    6    7 1    
    13    6   72 1    
    14    6   73 1    
    15    7    8 1    
    16    8    9 1    
    17    8   74 1    
    18    8   75 1    
    19    9   10 ar   
    20    9   14 ar   
    21   10   11 ar   
    22   10   76 1    
    23   11   12 ar   
    24   11   48 1    
    25   12   13 ar   
    26   12   77 1    
    27   13   14 ar   
    28   13   15 1    
    29   14   78 1    
    30   15   16 1    
    31   15   79 1    
    32   15   80 1    
    33   16   17 1    
    34   17   18 1    
    35   17   81 1    
    36   17   82 1    
    37   18   19 1    
    38   18   22 1    
    39   18   83 1    
    40   19   20 am   BACKBONE|DICT|INTERRES
    41   19   21 2    
    42   20   84 1    
    43   20   85 1    
    44   22   23 am   BACKBONE|DICT|INTERRES
    45   22   86 1    
    46   23   24 2    
    47   23   25 1    
    48   25   26 1    
    49   25   27 1    
    50   25   87 1    
    51   26   88 1    
    52   26   89 1    
    53   26   90 1    
    54   27   28 am   BACKBONE|DICT|INTERRES
    55   27   91 1    
    56   28   29 2    
    57   28   30 1    
    58   30   31 1    
    59   30   32 1    
    60   30   92 1    
    61   31   93 1    
    62   31   94 1    
    63   31   95 1    
    64   32   33 am   BACKBONE|DICT|INTERRES
    65   32   96 1    
    66   33   34 2    
    67   33   35 1    
    68   35   36 1    
    69   35   37 1    
    70   35   97 1    
    71   36   98 1    
    72   36   99 1    
    73   36  100 1    
    74   37   38 am   BACKBONE|DICT|INTERRES
    75   37  101 1    
    76   38   39 2    
    77   38   40 1    
    78   40   41 1    
    79   40   42 1    
    80   40  102 1    
    81   41  103 1    
    82   41  104 1    
    83   41  105 1    
    84   42   43 am   BACKBONE|DICT|INTERRES
    85   42  106 1    
    86   43   44 2    
    87   43   45 1    
    88   45   46 1    
    89   45   49 1    
    90   45  107 1    
    91   46   47 1    
    92   46  108 1    
    93   46  109 1    
    94   47   48 1    
    95   48  110 1    
    96   48  111 1    
    97   49   50 am   BACKBONE|DICT|INTERRES
    98   49  112 1    
    99   50   51 2    
   100   50   52 1    
   101   52   53 1    
   102   52   54 1    
   103   52  113 1    
   104   53  114 1    
   105   53  115 1    
   106   53  116 1    
   107   54   55 am   BACKBONE|DICT|INTERRES
   108   54  117 1    
   109   55   56 2    
   110   55   57 1    
   111   57   58 1    
   112   57   59 1    
   113   57  118 1    
   114   58  119 1    
   115   58  120 1    
   116   58  121 1    
   117   59   60 am   BACKBONE|DICT|INTERRES
   118   59  122 1    
   119   60   61 2    
   120   60   62 1    
   121   62   63 1    
   122   62   64 1    
   123   62  123 1    
   124   63  124 1    
   125   63  125 1    
   126   63  126 1    
   127   64   65 am   BACKBONE|DICT|INTERRES
   128   64  127 1    
   129   65   66 2    
@<TRIPOS>SUBSTRUCTURE
     1 UNK         1 GROUP             0       ****    0 ROOT    
