@<TRIPOS>MOLECULE
3R135
127   129    1
SMALL
USER_CHARGES


@<TRIPOS>ATOM
      1 CA        -84.3168   27.6311  -71.3311 C.3       0 UNK        -0.1998 
      2 C         -83.7095   27.4648  -72.7161 C.2       0 UNK         0.4909 
      3 O         -84.3854   26.9887  -73.6291 O.2       0 UNK        -0.5240 
      4 N         -82.4420   27.8617  -72.8805 N.am      1 UNK        -0.4739 
      5 CA        -81.6780   27.7241  -74.1235 C.3       1 UNK         0.0864 
      6 C6        -80.4035   28.6057  -74.1342 C.3       11 UNK        -0.0881 
      7 S7        -80.7306   30.3966  -73.9603 S.3       11 UNK        -0.2682 
      8 C8        -80.6482   30.6925  -72.1588 C.3       11 UNK         0.0289 
      9 C9        -79.3188   30.2724  -71.5473 C.ar      11 UNK        -0.0687 
     10 C10       -79.1980   29.0257  -70.9270 C.ar      11 UNK        -0.0823 
     11 C11       -77.9715   28.6069  -70.4083 C.ar      11 UNK        -0.0830 
     12 C12       -76.8771   29.4745  -70.4434 C.ar      11 UNK        -0.1021 
     13 C13       -76.9789   30.7171  -71.0754 C.ar      11 UNK        -0.0753 
     14 C14       -78.2048   31.1144  -71.6206 C.ar      11 UNK        -0.0933 
     15 C15       -75.7530   31.6070  -71.2129 C.3       11 UNK         0.0166 
     16 S16       -74.7621   31.1425  -72.6719 S.3       11 UNK        -0.2615 
     17 C17       -73.9182   29.6308  -72.0853 C.3       11 UNK        -0.0865 
     18 CA        -72.5007   29.4683  -72.6945 C.3       10 UNK         0.0862 
     19 C         -71.6699   28.3750  -71.9558 C.2       10 UNK         0.5551 
     20 N         -70.9888   27.4623  -72.6390 N.am      10 UNK        -0.7319 
     21 O         -71.6279   28.3617  -70.7281 O.2       10 UNK        -0.5018 
     22 N         -72.5640   29.2811  -74.1523 N.am      10 UNK        -0.4509 
     23 C         -71.6386   29.7023  -75.0207 C.2       10 UNK         0.4899 
     24 O         -70.6575   30.3787  -74.7058 O.2       10 UNK        -0.4839 
     25 CA        -71.8401   29.2592  -76.4828 C.3       9 UNK         0.0222 
     26 CB        -70.6579   29.6412  -77.3982 C.3       9 UNK        -0.1966 
     27 N         -72.1424   27.8271  -76.6057 N.am      9 UNK        -0.4218 
     28 C         -71.4029   26.7940  -76.1663 C.2       9 UNK         0.5020 
     29 O         -70.3396   26.9282  -75.5596 O.2       9 UNK        -0.5274 
     30 CA        -71.9332   25.3640  -76.4030 C.3       8 UNK         0.0270 
     31 CB        -72.3209   24.7115  -75.0668 C.3       8 UNK        -0.1976 
     32 N         -73.0808   25.2982  -77.3087 N.am      8 UNK        -0.4313 
     33 C         -73.0390   25.5172  -78.6297 C.2       8 UNK         0.5041 
     34 O         -71.9986   25.6765  -79.2683 O.2       8 UNK        -0.5577 
     35 CA        -74.3944   25.6397  -79.3446 C.3       7 UNK         0.0284 
     36 CB        -74.8049   24.3069  -79.9924 C.3       7 UNK        -0.1958 
     37 N         -75.4518   26.1160  -78.4431 N.am      7 UNK        -0.4454 
     38 C         -75.5481   27.3818  -78.0111 C.2       7 UNK         0.5089 
     39 O         -74.7528   28.2693  -78.3189 O.2       7 UNK        -0.5125 
     40 CA        -76.7053   27.7037  -77.0547 C.3       6 UNK         0.0408 
     41 CB        -78.0579   27.5968  -77.7792 C.3       6 UNK        -0.1791 
     42 N         -76.7097   26.8658  -75.8521 N.am      6 UNK        -0.4762 
     43 C         -75.7904   26.9323  -74.8761 C.2       6 UNK         0.5007 
     44 O         -74.7904   27.6481  -74.9373 O.2       6 UNK        -0.5032 
     45 CA        -76.0000   26.0657  -73.6205 C.3       5 UNK         0.0783 
     46 C46       -76.9773   26.7321  -72.6224 C.3       11 UNK        -0.0857 
     47 S47       -76.6253   26.2105  -70.9042 S.3       11 UNK        -0.2512 
     48 C48       -77.8089   27.1810  -69.9013 C.3       11 UNK         0.0225 
     49 N         -76.4347   24.7208  -73.9941 N.am      5 UNK        -0.4615 
     50 C         -75.7662   23.5976  -73.7037 C.2       4 UNK         0.5053 
     51 O         -74.7497   23.5629  -73.0104 O.2       4 UNK        -0.5105 
     52 CA        -76.3015   22.2767  -74.2912 C.3       4 UNK         0.0263 
     53 CB        -77.0872   21.4991  -73.2227 C.3       4 UNK        -0.1981 
     54 N         -77.1429   22.4307  -75.4816 N.am      4 UNK        -0.4224 
     55 C         -76.7750   23.0154  -76.6302 C.2       3 UNK         0.4895 
     56 O         -75.6604   23.4963  -76.8357 O.2       3 UNK        -0.5091 
     57 CA        -77.8591   23.1540  -77.7130 C.3       3 UNK         0.0250 
     58 CB        -77.8362   21.9362  -78.6497 C.3       3 UNK        -0.1996 
     59 N         -79.2244   23.3594  -77.2066 N.am      3 UNK        -0.4254 
     60 C         -79.6098   24.3234  -76.3566 C.2       2 UNK         0.5004 
     61 O         -78.8221   25.0939  -75.8020 O.2       2 UNK        -0.5226 
     62 CA        -81.1243   24.4381  -76.1083 C.3       2 UNK         0.0269 
     63 CB        -81.6441   23.2774  -75.2339 C.3       2 UNK        -0.1926 
     64 N         -81.5123   25.7522  -75.5703 N.am      2 UNK        -0.4687 
     65 C         -81.2949   26.2463  -74.3415 C.2       1 UNK         0.5165 
     66 O         -80.7968   25.6139  -73.4064 O.2       1 UNK        -0.5079 
     67 H67       -83.6142   28.0779  -70.6278 H         1 UNK         0.0900 
     68 H68       -84.6213   26.6620  -70.9367 H         1 UNK         0.0900 
     69 H69       -85.1976   28.2706  -71.3821 H         1 UNK         0.0900 
     70 H70       -81.9281   28.2180  -72.0909 H         1 UNK         0.2959 
     71 H71       -82.3199   28.0466  -74.9466 H         1 UNK         0.1079 
     72 H72       -79.6890   28.2735  -73.3838 H         1 UNK         0.0837 
     73 H73       -79.8840   28.4805  -75.0851 H         1 UNK         0.0837 
     74 H74       -80.8075   31.7563  -71.9766 H         1 UNK         0.0685 
     75 H75       -81.4754   30.1824  -71.6650 H         1 UNK         0.0685 
     76 H76       -80.0463   28.3568  -70.8953 H         1 UNK         0.1434 
     77 H77       -75.9291   29.1479  -70.0402 H         1 UNK         0.1329 
     78 H78       -78.2875   32.0692  -72.1218 H         1 UNK         0.1335 
     79 H79       -75.1419   31.5603  -70.3102 H         1 UNK         0.0680 
     80 H80       -76.0598   32.6489  -71.3168 H         1 UNK         0.0680 
     81 H81       -74.5388   28.7632  -72.3136 H         1 UNK         0.1032 
     82 H82       -73.8520   29.6812  -70.9976 H         1 UNK         0.1032 
     83 H83       -71.9668   30.3997  -72.4967 H         1 UNK         0.0461 
     84 H84       -70.4552   26.7742  -72.1328 H         1 UNK         0.3453 
     85 H85       -70.9472   27.4830  -73.6504 H         1 UNK         0.3453 
     86 H86       -73.3392   28.7168  -74.4944 H         1 UNK         0.2984 
     87 H87       -72.7229   29.7888  -76.8439 H         1 UNK         0.0554 
     88 H88       -70.8455   29.3462  -78.4306 H         1 UNK         0.0847 
     89 H89       -69.7287   29.1685  -77.0780 H         1 UNK         0.0847 
     90 H90       -70.4928   30.7193  -77.3946 H         1 UNK         0.0847 
     91 H91       -73.0253   27.6200  -77.0563 H         1 UNK         0.3141 
     92 H92       -71.1200   24.7847  -76.8450 H         1 UNK         0.0743 
     93 H93       -73.0950   25.2806  -74.5524 H         1 UNK         0.0784 
     94 H94       -72.6891   23.6950  -75.2084 H         1 UNK         0.0784 
     95 H95       -71.4632   24.6538  -74.3952 H         1 UNK         0.0784 
     96 H96       -73.9829   25.0996  -76.8941 H         1 UNK         0.3213 
     97 H97       -74.2767   26.3753  -80.1438 H         1 UNK         0.0855 
     98 H98       -74.8489   23.4937  -79.2690 H         1 UNK         0.0814 
     99 H99       -74.0831   24.0142  -80.7560 H         1 UNK         0.0814 
    100 H100      -75.7773   24.3808  -80.4793 H         1 UNK         0.0814 
    101 H101      -76.0866   25.4233  -78.0735 H         1 UNK         0.3105 
    102 H102      -76.5863   28.7403  -76.7315 H         1 UNK         0.0547 
    103 H103      -78.0812   28.2441  -78.6569 H         1 UNK         0.0837 
    104 H104      -78.2630   26.5818  -78.1194 H         1 UNK         0.0837 
    105 H105      -78.8802   27.9018  -77.1339 H         1 UNK         0.0837 
    106 H106      -77.5088   26.2406  -75.7467 H         1 UNK         0.3020 
    107 H107      -75.0162   26.0197  -73.1470 H         1 UNK         0.1245 
    108 H108      -76.8847   27.8180  -72.6738 H         1 UNK         0.0781 
    109 H109      -78.0153   26.5012  -72.8694 H         1 UNK         0.0781 
    110 H110      -78.7674   26.6595  -69.8994 H         1 UNK         0.0836 
    111 H111      -77.4683   27.2005  -68.8653 H         1 UNK         0.0836 
    112 H112      -77.2673   24.6597  -74.5701 H         1 UNK         0.3022 
    113 H113      -75.4335   21.6816  -74.5825 H         1 UNK         0.0747 
    114 H114      -77.3896   20.5168  -73.5861 H         1 UNK         0.0793 
    115 H115      -76.4799   21.3390  -72.3305 H         1 UNK         0.0793 
    116 H116      -77.9848   22.0363  -72.9130 H         1 UNK         0.0793 
    117 H117      -78.0906   22.0903  -75.4107 H         1 UNK         0.3047 
    118 H118      -77.6088   24.0347  -78.3063 H         1 UNK         0.0822 
    119 H119      -78.5060   22.0745  -79.4987 H         1 UNK         0.0807 
    120 H120      -78.1324   21.0227  -78.1326 H         1 UNK         0.0807 
    121 H121      -76.8364   21.7715  -79.0544 H         1 UNK         0.0807 
    122 H122      -79.9352   22.7614  -77.6040 H         1 UNK         0.2946 
    123 H123      -81.6118   24.3668  -77.0823 H         1 UNK         0.1144 
    124 H124      -81.5300   22.3203  -75.7438 H         1 UNK         0.0793 
    125 H125      -82.7036   23.3956  -75.0063 H         1 UNK         0.0793 
    126 H126      -81.1049   23.2009  -74.2891 H         1 UNK         0.0793 
    127 H127      -81.9187   26.3764  -76.2534 H         1 UNK         0.2896 
@<TRIPOS>BOND
     1    1    2 1    
     2    1   67 1    
     3    1   68 1    
     4    1   69 1    
     5    2    3 2    
     6    2    4 am   BACKBONE|DICT|INTERRES
     7    4    5 1    
     8    4   70 1    
     9    5    6 1    
    10    5   65 1    
    11    5   71 1    
    12    6    7 1    
    13    6   72 1    
    14    6   73 1    
    15    7    8 1    
    16    8    9 1    
    17    8   74 1    
    18    8   75 1    
    19    9   10 ar   
    20    9   14 ar   
    21   10   11 ar   
    22   10   76 1    
    23   11   12 ar   
    24   11   48 1    
    25   12   13 ar   
    26   12   77 1    
    27   13   14 ar   
    28   13   15 1    
    29   14   78 1    
    30   15   16 1    
    31   15   79 1    
    32   15   80 1    
    33   16   17 1    
    34   17   18 1    
    35   17   81 1    
    36   17   82 1    
    37   18   19 1    
    38   18   22 1    
    39   18   83 1    
    40   19   20 am   BACKBONE|DICT|INTERRES
    41   19   21 2    
    42   20   84 1    
    43   20   85 1    
    44   22   23 am   BACKBONE|DICT|INTERRES
    45   22   86 1    
    46   23   24 2    
    47   23   25 1    
    48   25   26 1    
    49   25   27 1    
    50   25   87 1    
    51   26   88 1    
    52   26   89 1    
    53   26   90 1    
    54   27   28 am   BACKBONE|DICT|INTERRES
    55   27   91 1    
    56   28   29 2    
    57   28   30 1    
    58   30   31 1    
    59   30   32 1    
    60   30   92 1    
    61   31   93 1    
    62   31   94 1    
    63   31   95 1    
    64   32   33 am   BACKBONE|DICT|INTERRES
    65   32   96 1    
    66   33   34 2    
    67   33   35 1    
    68   35   36 1    
    69   35   37 1    
    70   35   97 1    
    71   36   98 1    
    72   36   99 1    
    73   36  100 1    
    74   37   38 am   BACKBONE|DICT|INTERRES
    75   37  101 1    
    76   38   39 2    
    77   38   40 1    
    78   40   41 1    
    79   40   42 1    
    80   40  102 1    
    81   41  103 1    
    82   41  104 1    
    83   41  105 1    
    84   42   43 am   BACKBONE|DICT|INTERRES
    85   42  106 1    
    86   43   44 2    
    87   43   45 1    
    88   45   46 1    
    89   45   49 1    
    90   45  107 1    
    91   46   47 1    
    92   46  108 1    
    93   46  109 1    
    94   47   48 1    
    95   48  110 1    
    96   48  111 1    
    97   49   50 am   BACKBONE|DICT|INTERRES
    98   49  112 1    
    99   50   51 2    
   100   50   52 1    
   101   52   53 1    
   102   52   54 1    
   103   52  113 1    
   104   53  114 1    
   105   53  115 1    
   106   53  116 1    
   107   54   55 am   BACKBONE|DICT|INTERRES
   108   54  117 1    
   109   55   56 2    
   110   55   57 1    
   111   57   58 1    
   112   57   59 1    
   113   57  118 1    
   114   58  119 1    
   115   58  120 1    
   116   58  121 1    
   117   59   60 am   BACKBONE|DICT|INTERRES
   118   59  122 1    
   119   60   61 2    
   120   60   62 1    
   121   62   63 1    
   122   62   64 1    
   123   62  123 1    
   124   63  124 1    
   125   63  125 1    
   126   63  126 1    
   127   64   65 am   BACKBONE|DICT|INTERRES
   128   64  127 1    
   129   65   66 2    
@<TRIPOS>SUBSTRUCTURE
     1 UNK         1 GROUP             0       ****    0 ROOT    
