@<TRIPOS>MOLECULE
3R135
127   129    1
SMALL
USER_CHARGES


@<TRIPOS>ATOM
      1 CA        -85.2482   30.0964  -74.7849 C.3       0 UNK        -0.1998 
      2 C         -84.1151   29.1381  -74.4470 C.2       0 UNK         0.4909 
      3 O         -84.3727   28.0872  -73.8598 O.2       0 UNK        -0.5240 
      4 N         -82.8803   29.5079  -74.8215 N.am      1 UNK        -0.4739 
      5 CA        -81.6113   28.7851  -74.6365 C.3       1 UNK         0.0864 
      6 C6        -80.9094   29.0806  -73.2775 C.3       11 UNK        -0.0881 
      7 S7        -81.7642   28.4881  -71.7749 S.3       11 UNK        -0.2682 
      8 C8        -80.9317   29.4641  -70.4821 C.3       11 UNK         0.0289 
      9 C9        -79.4301   29.2142  -70.4540 C.ar      11 UNK        -0.0687 
     10 C10       -78.9348   27.9501  -70.1174 C.ar      11 UNK        -0.0823 
     11 C11       -77.5589   27.7094  -70.1194 C.ar      11 UNK        -0.0830 
     12 C12       -76.6783   28.7560  -70.3960 C.ar      11 UNK        -0.1021 
     13 C13       -77.1570   30.0100  -70.7805 C.ar      11 UNK        -0.0753 
     14 C14       -78.5373   30.2366  -70.7971 C.ar      11 UNK        -0.0933 
     15 C15       -76.1849   31.1015  -71.2133 C.3       11 UNK         0.0166 
     16 S16       -75.3373   30.6751  -72.7769 S.3       11 UNK        -0.2615 
     17 C17       -73.9504   29.6392  -72.1875 C.3       11 UNK        -0.0865 
     18 CA        -72.6120   29.9697  -72.8965 C.3       10 UNK         0.0862 
     19 C         -71.3888   29.4569  -72.0741 C.2       10 UNK         0.5551 
     20 N         -70.4789   28.6610  -72.6227 N.am      10 UNK        -0.7319 
     21 O         -71.2554   29.8021  -70.9026 O.2       10 UNK        -0.5018 
     22 N         -72.6313   29.5299  -74.3008 N.am      10 UNK        -0.4509 
     23 C         -71.8546   30.0386  -75.2652 C.2       10 UNK         0.4899 
     24 O         -71.1177   31.0138  -75.1075 O.2       10 UNK        -0.4839 
     25 CA        -71.8924   29.3097  -76.6227 C.3       9 UNK         0.0222 
     26 CB        -70.7667   29.7558  -77.5792 C.3       9 UNK        -0.1966 
     27 N         -71.8997   27.8477  -76.4843 N.am      9 UNK        -0.4218 
     28 C         -70.9975   27.0790  -75.8521 C.2       9 UNK         0.5020 
     29 O         -69.9930   27.5266  -75.2978 O.2       9 UNK        -0.5274 
     30 CA        -71.2591   25.5608  -75.7804 C.3       8 UNK         0.0270 
     31 CB        -71.5514   25.1384  -74.3304 C.3       8 UNK        -0.1976 
     32 N         -72.3557   25.1068  -76.6390 N.am      8 UNK        -0.4313 
     33 C         -72.2939   25.0140  -77.9743 C.2       8 UNK         0.5041 
     34 O         -71.2682   25.2058  -78.6282 O.2       8 UNK        -0.5577 
     35 CA        -73.6104   24.7045  -78.7070 C.3       7 UNK         0.0284 
     36 CB        -73.8429   23.1873  -78.7833 C.3       7 UNK        -0.1958 
     37 N         -74.7737   25.3608  -78.0969 N.am      7 UNK        -0.4454 
     38 C         -74.9413   26.6898  -78.0129 C.2       7 UNK         0.5089 
     39 O         -74.1491   27.5071  -78.4795 O.2       7 UNK        -0.5125 
     40 CA        -76.1617   27.2013  -77.2311 C.3       6 UNK         0.0408 
     41 CB        -77.4382   27.1116  -78.0813 C.3       6 UNK        -0.1791 
     42 N         -76.3563   26.4870  -75.9703 N.am      6 UNK        -0.4762 
     43 C         -75.5162   26.5167  -74.9244 C.2       6 UNK         0.5007 
     44 O         -74.4986   27.2109  -74.8753 O.2       6 UNK        -0.5032 
     45 CA        -75.8586   25.5796  -73.7487 C.3       5 UNK         0.0783 
     46 C46       -76.8785   26.2523  -72.8026 C.3       11 UNK        -0.0857 
     47 S47       -77.3272   25.2241  -71.3530 S.3       11 UNK        -0.2512 
     48 C48       -77.0109   26.3052  -69.9121 C.3       11 UNK         0.0225 
     49 N         -76.3224   24.2751  -74.2273 N.am      5 UNK        -0.4615 
     50 C         -75.5605   23.3836  -74.8725 C.2       4 UNK         0.5053 
     51 O         -74.3706   23.5596  -75.1324 O.2       4 UNK        -0.5105 
     52 CA        -76.2583   22.0947  -75.3361 C.3       4 UNK         0.0263 
     53 CB        -76.3747   21.0939  -74.1755 C.3       4 UNK        -0.1981 
     54 N         -77.5850   22.3466  -75.9063 N.am      4 UNK        -0.4224 
     55 C         -77.7972   23.0228  -77.0443 C.2       3 UNK         0.4895 
     56 O         -76.8979   23.4820  -77.7463 O.2       3 UNK        -0.5091 
     57 CA        -79.2594   23.2646  -77.4519 C.3       3 UNK         0.0250 
     58 CB        -79.8267   22.0374  -78.1830 C.3       3 UNK        -0.1996 
     59 N         -80.1438   23.6305  -76.3396 N.am      3 UNK        -0.4254 
     60 C         -79.9685   24.6887  -75.5358 C.2       2 UNK         0.5004 
     61 O         -78.9769   25.4212  -75.5675 O.2       2 UNK        -0.5226 
     62 CA        -81.0717   24.9525  -74.4990 C.3       2 UNK         0.0269 
     63 CB        -80.7708   24.2033  -73.1918 C.3       2 UNK        -0.1926 
     64 N         -81.2002   26.3816  -74.2095 N.am      2 UNK        -0.4687 
     65 C         -81.6711   27.2984  -75.0657 C.2       1 UNK         0.5165 
     66 O         -82.1212   27.0161  -76.1796 O.2       1 UNK        -0.5079 
     67 H67       -85.9763   29.6039  -75.4289 H         1 UNK         0.0900 
     68 H68       -85.7567   30.4108  -73.8738 H         1 UNK         0.0900 
     69 H69       -84.8911   30.9892  -75.2981 H         1 UNK         0.0900 
     70 H70       -82.7862   30.3795  -75.3239 H         1 UNK         0.2959 
     71 H71       -80.9555   29.2232  -75.3912 H         1 UNK         0.1079 
     72 H72       -79.8967   28.6717  -73.2816 H         1 UNK         0.0837 
     73 H73       -80.7779   30.1595  -73.1811 H         1 UNK         0.0837 
     74 H74       -81.3565   29.2020  -69.5122 H         1 UNK         0.0685 
     75 H75       -81.1498   30.5218  -70.6377 H         1 UNK         0.0685 
     76 H76       -79.6218   27.1432  -69.9007 H         1 UNK         0.1434 
     77 H77       -75.6168   28.5652  -70.3807 H         1 UNK         0.1329 
     78 H78       -78.9183   31.2053  -71.0904 H         1 UNK         0.1335 
     79 H79       -76.7185   32.0413  -71.3632 H         1 UNK         0.0680 
     80 H80       -75.4590   31.2921  -70.4219 H         1 UNK         0.0680 
     81 H81       -74.2048   28.5870  -72.3260 H         1 UNK         0.1032 
     82 H82       -73.8493   29.7888  -71.1116 H         1 UNK         0.1032 
     83 H83       -72.5088   31.0567  -72.8947 H         1 UNK         0.0461 
     84 H84       -69.7003   28.3561  -72.0612 H         1 UNK         0.3453 
     85 H85       -70.5226   28.3925  -73.5995 H         1 UNK         0.3453 
     86 H86       -73.2165   28.7274  -74.5141 H         1 UNK         0.2984 
     87 H87       -72.8440   29.5769  -77.0839 H         1 UNK         0.0554 
     88 H88       -70.8242   30.8262  -77.7801 H         1 UNK         0.0847 
     89 H89       -70.8370   29.2429  -78.5385 H         1 UNK         0.0847 
     90 H90       -69.7789   29.5551  -77.1629 H         1 UNK         0.0847 
     91 H91       -72.7010   27.3885  -76.9005 H         1 UNK         0.3141 
     92 H92       -70.3438   25.0601  -76.1026 H         1 UNK         0.0743 
     93 H93       -70.7289   25.4115  -73.6678 H         1 UNK         0.0784 
     94 H94       -72.4517   25.6173  -73.9449 H         1 UNK         0.0784 
     95 H95       -71.6857   24.0595  -74.2504 H         1 UNK         0.0784 
     96 H96       -73.2198   24.8438  -76.1732 H         1 UNK         0.3213 
     97 H97       -73.5154   25.0852  -79.7262 H         1 UNK         0.0855 
     98 H98       -73.9885   22.7508  -77.7948 H         1 UNK         0.0814 
     99 H99       -72.9906   22.6835  -79.2413 H         1 UNK         0.0814 
    100 H100      -74.7200   22.9509  -79.3858 H         1 UNK         0.0814 
    101 H101      -75.5074   24.7497  -77.7437 H         1 UNK         0.3105 
    102 H102      -75.9883   28.2524  -76.9910 H         1 UNK         0.0547 
    103 H103      -78.2969   27.5244  -77.5514 H         1 UNK         0.0837 
    104 H104      -77.6760   26.0816  -78.3474 H         1 UNK         0.0837 
    105 H105      -77.3284   27.6723  -79.0104 H         1 UNK         0.0837 
    106 H106      -77.2070   25.9325  -75.8880 H         1 UNK         0.3020 
    107 H107      -74.9344   25.4159  -73.1897 H         1 UNK         0.1245 
    108 H108      -77.8016   26.4922  -73.3339 H         1 UNK         0.0781 
    109 H109      -76.4689   27.2058  -72.4764 H         1 UNK         0.0781 
    110 H110      -75.9369   26.3322  -69.7214 H         1 UNK         0.0836 
    111 H111      -77.4668   25.8616  -69.0259 H         1 UNK         0.0836 
    112 H112      -77.3004   24.0728  -74.0850 H         1 UNK         0.3022 
    113 H113      -75.6379   21.6441  -76.1138 H         1 UNK         0.0747 
    114 H114      -76.7939   20.1450  -74.5107 H         1 UNK         0.0793 
    115 H115      -75.3945   20.8798  -73.7472 H         1 UNK         0.0793 
    116 H116      -77.0053   21.4751  -73.3711 H         1 UNK         0.0793 
    117 H117      -78.3835   22.0059  -75.3912 H         1 UNK         0.3047 
    118 H118      -79.2621   24.1035  -78.1510 H         1 UNK         0.0822 
    119 H119      -80.8204   22.2379  -78.5839 H         1 UNK         0.0807 
    120 H120      -79.8978   21.1698  -77.5259 H         1 UNK         0.0807 
    121 H121      -79.1918   21.7571  -79.0250 H         1 UNK         0.0807 
    122 H122      -80.9777   23.0713  -76.2294 H         1 UNK         0.2946 
    123 H123      -82.0248   24.6004  -74.9001 H         1 UNK         0.1144 
    124 H124      -79.8313   24.5319  -72.7481 H         1 UNK         0.0793 
    125 H125      -80.6939   23.1285  -73.3614 H         1 UNK         0.0793 
    126 H126      -81.5597   24.3583  -72.4555 H         1 UNK         0.0793 
    127 H127      -80.8672   26.6989  -73.3097 H         1 UNK         0.2896 
@<TRIPOS>BOND
     1    1    2 1    
     2    1   67 1    
     3    1   68 1    
     4    1   69 1    
     5    2    3 2    
     6    2    4 am   BACKBONE|DICT|INTERRES
     7    4    5 1    
     8    4   70 1    
     9    5    6 1    
    10    5   65 1    
    11    5   71 1    
    12    6    7 1    
    13    6   72 1    
    14    6   73 1    
    15    7    8 1    
    16    8    9 1    
    17    8   74 1    
    18    8   75 1    
    19    9   10 ar   
    20    9   14 ar   
    21   10   11 ar   
    22   10   76 1    
    23   11   12 ar   
    24   11   48 1    
    25   12   13 ar   
    26   12   77 1    
    27   13   14 ar   
    28   13   15 1    
    29   14   78 1    
    30   15   16 1    
    31   15   79 1    
    32   15   80 1    
    33   16   17 1    
    34   17   18 1    
    35   17   81 1    
    36   17   82 1    
    37   18   19 1    
    38   18   22 1    
    39   18   83 1    
    40   19   20 am   BACKBONE|DICT|INTERRES
    41   19   21 2    
    42   20   84 1    
    43   20   85 1    
    44   22   23 am   BACKBONE|DICT|INTERRES
    45   22   86 1    
    46   23   24 2    
    47   23   25 1    
    48   25   26 1    
    49   25   27 1    
    50   25   87 1    
    51   26   88 1    
    52   26   89 1    
    53   26   90 1    
    54   27   28 am   BACKBONE|DICT|INTERRES
    55   27   91 1    
    56   28   29 2    
    57   28   30 1    
    58   30   31 1    
    59   30   32 1    
    60   30   92 1    
    61   31   93 1    
    62   31   94 1    
    63   31   95 1    
    64   32   33 am   BACKBONE|DICT|INTERRES
    65   32   96 1    
    66   33   34 2    
    67   33   35 1    
    68   35   36 1    
    69   35   37 1    
    70   35   97 1    
    71   36   98 1    
    72   36   99 1    
    73   36  100 1    
    74   37   38 am   BACKBONE|DICT|INTERRES
    75   37  101 1    
    76   38   39 2    
    77   38   40 1    
    78   40   41 1    
    79   40   42 1    
    80   40  102 1    
    81   41  103 1    
    82   41  104 1    
    83   41  105 1    
    84   42   43 am   BACKBONE|DICT|INTERRES
    85   42  106 1    
    86   43   44 2    
    87   43   45 1    
    88   45   46 1    
    89   45   49 1    
    90   45  107 1    
    91   46   47 1    
    92   46  108 1    
    93   46  109 1    
    94   47   48 1    
    95   48  110 1    
    96   48  111 1    
    97   49   50 am   BACKBONE|DICT|INTERRES
    98   49  112 1    
    99   50   51 2    
   100   50   52 1    
   101   52   53 1    
   102   52   54 1    
   103   52  113 1    
   104   53  114 1    
   105   53  115 1    
   106   53  116 1    
   107   54   55 am   BACKBONE|DICT|INTERRES
   108   54  117 1    
   109   55   56 2    
   110   55   57 1    
   111   57   58 1    
   112   57   59 1    
   113   57  118 1    
   114   58  119 1    
   115   58  120 1    
   116   58  121 1    
   117   59   60 am   BACKBONE|DICT|INTERRES
   118   59  122 1    
   119   60   61 2    
   120   60   62 1    
   121   62   63 1    
   122   62   64 1    
   123   62  123 1    
   124   63  124 1    
   125   63  125 1    
   126   63  126 1    
   127   64   65 am   BACKBONE|DICT|INTERRES
   128   64  127 1    
   129   65   66 2    
@<TRIPOS>SUBSTRUCTURE
     1 UNK         1 GROUP             0       ****    0 ROOT    
