@<TRIPOS>MOLECULE
3R135
127   129    1
SMALL
USER_CHARGES


@<TRIPOS>ATOM
      1 CA        -80.1347   24.1768  -70.3234 C.3       0 UNK        -0.1998 
      2 C         -81.2455   24.9432  -71.0235 C.2       0 UNK         0.4909 
      3 O         -82.3530   24.4229  -71.1617 O.2       0 UNK        -0.5240 
      4 N         -80.9623   26.1811  -71.4526 N.am      1 UNK        -0.4739 
      5 CA        -81.9285   27.0801  -72.1035 C.3       1 UNK         0.0864 
      6 C6        -81.4298   28.5450  -72.1536 C.3       11 UNK        -0.0881 
      7 S7        -81.0440   29.1886  -70.4875 S.3       11 UNK        -0.2682 
      8 C8        -79.8372   30.5098  -70.8454 C.3       11 UNK         0.0289 
      9 C9        -78.6007   30.0180  -71.5899 C.ar      11 UNK        -0.0687 
     10 C10       -77.8750   28.9145  -71.1261 C.ar      11 UNK        -0.0823 
     11 C11       -76.7637   28.4477  -71.8341 C.ar      11 UNK        -0.0830 
     12 C12       -76.3627   29.1118  -72.9951 C.ar      11 UNK        -0.1021 
     13 C13       -77.0491   30.2420  -73.4453 C.ar      11 UNK        -0.0753 
     14 C14       -78.1769   30.6810  -72.7467 C.ar      11 UNK        -0.0933 
     15 C15       -76.5731   30.9870  -74.6856 C.3       11 UNK         0.0166 
     16 S16       -75.7439   32.5596  -74.2792 S.3       11 UNK        -0.2615 
     17 C17       -74.2149   31.9911  -73.4554 C.3       11 UNK        -0.0865 
     18 CA        -73.0105   31.8432  -74.4332 C.3       10 UNK         0.0862 
     19 C         -72.1892   33.1507  -74.5944 C.2       10 UNK         0.5551 
     20 N         -72.8164   34.2237  -75.0538 N.am      10 UNK        -0.7319 
     21 O         -70.9945   33.2055  -74.3039 O.2       10 UNK        -0.5018 
     22 N         -72.1455   30.7154  -74.0636 N.am      10 UNK        -0.4509 
     23 C         -72.4258   29.4305  -74.2958 C.2       10 UNK         0.4899 
     24 O         -73.4417   29.0516  -74.8735 O.2       10 UNK        -0.4839 
     25 CA        -71.4230   28.3992  -73.7663 C.3       9 UNK         0.0222 
     26 CB        -71.4384   28.3594  -72.2249 C.3       9 UNK        -0.1966 
     27 N         -71.7532   27.0743  -74.2926 N.am      9 UNK        -0.4218 
     28 C         -70.8946   26.0535  -74.4046 C.2       9 UNK         0.5020 
     29 O         -69.7012   26.1301  -74.1076 O.2       9 UNK        -0.5274 
     30 CA        -71.4458   24.7145  -74.9174 C.3       8 UNK         0.0270 
     31 CB        -72.0816   23.9170  -73.7656 C.3       8 UNK        -0.1976 
     32 N         -72.4269   24.8866  -75.9895 N.am      8 UNK        -0.4313 
     33 C         -72.1316   24.8803  -77.2969 C.2       8 UNK         0.5041 
     34 O         -70.9866   24.7615  -77.7360 O.2       8 UNK        -0.5577 
     35 CA        -73.2988   24.9946  -78.2965 C.3       7 UNK         0.0284 
     36 CB        -73.7030   23.6000  -78.8020 C.3       7 UNK        -0.1958 
     37 N         -74.4785   25.6579  -77.7420 N.am      7 UNK        -0.4454 
     38 C         -74.5647   26.9680  -77.4812 C.2       7 UNK         0.5089 
     39 O         -73.6946   27.7815  -77.7914 O.2       7 UNK        -0.5125 
     40 CA        -75.8246   27.4449  -76.7330 C.3       6 UNK         0.0408 
     41 CB        -76.9016   27.9073  -77.7244 C.3       6 UNK        -0.1791 
     42 N         -76.3925   26.4489  -75.8158 N.am      6 UNK        -0.4762 
     43 C         -75.7513   25.9086  -74.7666 C.2       6 UNK         0.5007 
     44 O         -74.5836   26.1594  -74.4707 O.2       6 UNK        -0.5032 
     45 CA        -76.5328   24.8667  -73.9488 C.3       5 UNK         0.0783 
     46 C46       -77.5672   25.5387  -73.0064 C.3       11 UNK        -0.0857 
     47 S47       -76.9659   25.7101  -71.2938 S.3       11 UNK        -0.2512 
     48 C48       -75.9771   27.2407  -71.3419 C.3       11 UNK         0.0225 
     49 N         -77.1581   23.9030  -74.8547 N.am      5 UNK        -0.4615 
     50 C         -76.5080   22.9066  -75.4711 C.2       4 UNK         0.5053 
     51 O         -75.3264   22.6317  -75.2655 O.2       4 UNK        -0.5105 
     52 CA        -77.3011   22.0923  -76.5105 C.3       4 UNK         0.0263 
     53 CB        -77.9423   20.8610  -75.8512 C.3       4 UNK        -0.1981 
     54 N         -78.3386   22.8745  -77.1900 N.am      4 UNK        -0.4224 
     55 C         -78.0954   23.9110  -78.0052 C.2       3 UNK         0.4895 
     56 O         -76.9652   24.2788  -78.3211 O.2       3 UNK        -0.5091 
     57 CA        -79.3125   24.7050  -78.5134 C.3       3 UNK         0.0250 
     58 CB        -79.8193   24.1143  -79.8386 C.3       3 UNK        -0.1996 
     59 N         -80.4259   24.7958  -77.5600 N.am      3 UNK        -0.4254 
     60 C         -80.3481   25.2693  -76.3078 C.2       2 UNK         0.5004 
     61 O         -79.2991   25.6532  -75.7809 O.2       2 UNK        -0.5226 
     62 CA        -81.6536   25.2691  -75.5029 C.3       2 UNK         0.0269 
     63 CB        -82.1726   23.8353  -75.2773 C.3       2 UNK        -0.1926 
     64 N         -81.4318   25.9014  -74.2049 N.am      2 UNK        -0.4687 
     65 C         -82.3426   26.5918  -73.5084 C.2       1 UNK         0.5165 
     66 O         -83.4794   26.8288  -73.9207 O.2       1 UNK        -0.5079 
     67 H67       -79.5929   23.5574  -71.0375 H         1 UNK         0.0900 
     68 H68       -80.5488   23.5266  -69.5533 H         1 UNK         0.0900 
     69 H69       -79.4282   24.8520  -69.8419 H         1 UNK         0.0900 
     70 H70       -80.0447   26.5702  -71.2883 H         1 UNK         0.2959 
     71 H71       -82.8374   27.0645  -71.4973 H         1 UNK         0.1079 
     72 H72       -80.5497   28.6186  -72.7945 H         1 UNK         0.0837 
     73 H73       -82.1868   29.1948  -72.5972 H         1 UNK         0.0837 
     74 H74       -80.3434   31.2938  -71.4109 H         1 UNK         0.0685 
     75 H75       -79.5225   30.9624  -69.9044 H         1 UNK         0.0685 
     76 H76       -78.1865   28.4064  -70.2237 H         1 UNK         0.1434 
     77 H77       -75.5025   28.7555  -73.5421 H         1 UNK         0.1329 
     78 H78       -78.7168   31.5479  -73.1024 H         1 UNK         0.1335 
     79 H79       -75.8886   30.3734  -75.2708 H         1 UNK         0.0680 
     80 H80       -77.4272   31.1933  -75.3320 H         1 UNK         0.0680 
     81 H81       -74.4268   31.0459  -72.9575 H         1 UNK         0.1032 
     82 H82       -73.9777   32.6802  -72.6427 H         1 UNK         0.1032 
     83 H83       -73.3891   31.6177  -75.4325 H         1 UNK         0.0461 
     84 H84       -73.8012   34.1861  -75.2702 H         1 UNK         0.3453 
     85 H85       -72.3062   35.0857  -75.1663 H         1 UNK         0.3453 
     86 H86       -71.2693   30.9791  -73.6319 H         1 UNK         0.2984 
     87 H87       -70.4305   28.6892  -74.1172 H         1 UNK         0.0554 
     88 H88       -70.7131   27.6443  -71.8367 H         1 UNK         0.0847 
     89 H89       -72.4209   28.0786  -71.8428 H         1 UNK         0.0847 
     90 H90       -71.1873   29.3309  -71.7980 H         1 UNK         0.0847 
     91 H91       -72.7273   26.9536  -74.5642 H         1 UNK         0.3141 
     92 H92       -70.6020   24.1309  -75.2919 H         1 UNK         0.0743 
     93 H93       -72.9134   24.4523  -73.3069 H         1 UNK         0.0784 
     94 H94       -72.4562   22.9530  -74.1108 H         1 UNK         0.0784 
     95 H95       -71.3508   23.7196  -72.9803 H         1 UNK         0.0784 
     96 H96       -73.3838   25.0584  -75.7013 H         1 UNK         0.3213 
     97 H97       -72.9462   25.5793  -79.1489 H         1 UNK         0.0855 
     98 H98       -74.0880   22.9755  -77.9944 H         1 UNK         0.0814 
     99 H99       -72.8506   23.0797  -79.2408 H         1 UNK         0.0814 
    100 H100      -74.4735   23.6647  -79.5706 H         1 UNK         0.0814 
    101 H101      -75.2974   25.0809  -77.5740 H         1 UNK         0.3105 
    102 H102      -75.5399   28.3031  -76.1276 H         1 UNK         0.0547 
    103 H103      -76.5424   28.7483  -78.3188 H         1 UNK         0.0837 
    104 H104      -77.1713   27.1137  -78.4199 H         1 UNK         0.0837 
    105 H105      -77.8063   28.2344  -77.2115 H         1 UNK         0.0837 
    106 H106      -77.3603   26.1822  -75.9705 H         1 UNK         0.3020 
    107 H107      -75.8062   24.3192  -73.3431 H         1 UNK         0.1245 
    108 H108      -78.4611   24.9173  -72.9397 H         1 UNK         0.0781 
    109 H109      -77.9247   26.4990  -73.3840 H         1 UNK         0.0781 
    110 H110      -75.0925   27.0726  -71.9579 H         1 UNK         0.0836 
    111 H111      -75.6069   27.4485  -70.3371 H         1 UNK         0.0836 
    112 H112      -78.1042   24.1207  -75.1427 H         1 UNK         0.3022 
    113 H113      -76.5921   21.7474  -77.2664 H         1 UNK         0.0747 
    114 H114      -78.4391   20.2294  -76.5879 H         1 UNK         0.0793 
    115 H115      -77.1881   20.2467  -75.3570 H         1 UNK         0.0793 
    116 H116      -78.6785   21.1425  -75.0970 H         1 UNK         0.0793 
    117 H117      -79.2989   22.6355  -76.9911 H         1 UNK         0.3047 
    118 H118      -78.9773   25.7244  -78.7071 H         1 UNK         0.0822 
    119 H119      -80.6070   24.7300  -80.2732 H         1 UNK         0.0807 
    120 H120      -80.2134   23.1056  -79.7083 H         1 UNK         0.0807 
    121 H121      -79.0147   24.0573  -80.5734 H         1 UNK         0.0807 
    122 H122      -81.3273   24.4958  -77.9033 H         1 UNK         0.2946 
    123 H123      -82.3902   25.8433  -76.0698 H         1 UNK         0.1144 
    124 H124      -81.4439   23.2233  -74.7439 H         1 UNK         0.0793 
    125 H125      -82.3969   23.3345  -76.2195 H         1 UNK         0.0793 
    126 H126      -83.0927   23.8367  -74.6923 H         1 UNK         0.0793 
    127 H127      -80.4927   25.8159  -73.8418 H         1 UNK         0.2896 
@<TRIPOS>BOND
     1    1    2 1    
     2    1   67 1    
     3    1   68 1    
     4    1   69 1    
     5    2    3 2    
     6    2    4 am   BACKBONE|DICT|INTERRES
     7    4    5 1    
     8    4   70 1    
     9    5    6 1    
    10    5   65 1    
    11    5   71 1    
    12    6    7 1    
    13    6   72 1    
    14    6   73 1    
    15    7    8 1    
    16    8    9 1    
    17    8   74 1    
    18    8   75 1    
    19    9   10 ar   
    20    9   14 ar   
    21   10   11 ar   
    22   10   76 1    
    23   11   12 ar   
    24   11   48 1    
    25   12   13 ar   
    26   12   77 1    
    27   13   14 ar   
    28   13   15 1    
    29   14   78 1    
    30   15   16 1    
    31   15   79 1    
    32   15   80 1    
    33   16   17 1    
    34   17   18 1    
    35   17   81 1    
    36   17   82 1    
    37   18   19 1    
    38   18   22 1    
    39   18   83 1    
    40   19   20 am   BACKBONE|DICT|INTERRES
    41   19   21 2    
    42   20   84 1    
    43   20   85 1    
    44   22   23 am   BACKBONE|DICT|INTERRES
    45   22   86 1    
    46   23   24 2    
    47   23   25 1    
    48   25   26 1    
    49   25   27 1    
    50   25   87 1    
    51   26   88 1    
    52   26   89 1    
    53   26   90 1    
    54   27   28 am   BACKBONE|DICT|INTERRES
    55   27   91 1    
    56   28   29 2    
    57   28   30 1    
    58   30   31 1    
    59   30   32 1    
    60   30   92 1    
    61   31   93 1    
    62   31   94 1    
    63   31   95 1    
    64   32   33 am   BACKBONE|DICT|INTERRES
    65   32   96 1    
    66   33   34 2    
    67   33   35 1    
    68   35   36 1    
    69   35   37 1    
    70   35   97 1    
    71   36   98 1    
    72   36   99 1    
    73   36  100 1    
    74   37   38 am   BACKBONE|DICT|INTERRES
    75   37  101 1    
    76   38   39 2    
    77   38   40 1    
    78   40   41 1    
    79   40   42 1    
    80   40  102 1    
    81   41  103 1    
    82   41  104 1    
    83   41  105 1    
    84   42   43 am   BACKBONE|DICT|INTERRES
    85   42  106 1    
    86   43   44 2    
    87   43   45 1    
    88   45   46 1    
    89   45   49 1    
    90   45  107 1    
    91   46   47 1    
    92   46  108 1    
    93   46  109 1    
    94   47   48 1    
    95   48  110 1    
    96   48  111 1    
    97   49   50 am   BACKBONE|DICT|INTERRES
    98   49  112 1    
    99   50   51 2    
   100   50   52 1    
   101   52   53 1    
   102   52   54 1    
   103   52  113 1    
   104   53  114 1    
   105   53  115 1    
   106   53  116 1    
   107   54   55 am   BACKBONE|DICT|INTERRES
   108   54  117 1    
   109   55   56 2    
   110   55   57 1    
   111   57   58 1    
   112   57   59 1    
   113   57  118 1    
   114   58  119 1    
   115   58  120 1    
   116   58  121 1    
   117   59   60 am   BACKBONE|DICT|INTERRES
   118   59  122 1    
   119   60   61 2    
   120   60   62 1    
   121   62   63 1    
   122   62   64 1    
   123   62  123 1    
   124   63  124 1    
   125   63  125 1    
   126   63  126 1    
   127   64   65 am   BACKBONE|DICT|INTERRES
   128   64  127 1    
   129   65   66 2    
@<TRIPOS>SUBSTRUCTURE
     1 UNK         1 GROUP             0       ****    0 ROOT    
