@<TRIPOS>MOLECULE
3R135
127   129    1
SMALL
USER_CHARGES


@<TRIPOS>ATOM
      1 CA        -83.9633   25.3828  -74.8990 C.3       0 UNK        -0.1998 
      2 C         -82.8646   26.3824  -75.2242 C.2       0 UNK         0.4909 
      3 O         -82.5852   26.6247  -76.3991 O.2       0 UNK        -0.5240 
      4 N         -82.2283   26.9554  -74.1937 N.am      1 UNK        -0.4739 
      5 CA        -81.0888   27.8742  -74.2986 C.3       1 UNK         0.0864 
      6 C6        -80.6810   28.4765  -72.9265 C.3       11 UNK        -0.0881 
      7 S7        -80.5644   27.2591  -71.5679 S.3       11 UNK        -0.2682 
      8 C8        -79.6809   28.2208  -70.2982 C.3       11 UNK         0.0289 
      9 C9        -78.1842   28.3325  -70.5659 C.ar      11 UNK        -0.0687 
     10 C10       -77.4102   27.1800  -70.7279 C.ar      11 UNK        -0.0823 
     11 C11       -76.0284   27.2698  -70.9163 C.ar      11 UNK        -0.0830 
     12 C12       -75.4150   28.5263  -70.9191 C.ar      11 UNK        -0.1021 
     13 C13       -76.1747   29.6906  -70.7560 C.ar      11 UNK        -0.0753 
     14 C14       -77.5606   29.5842  -70.5893 C.ar      11 UNK        -0.0933 
     15 C15       -75.5083   31.0621  -70.6956 C.3       11 UNK         0.0166 
     16 S16       -74.4364   31.4081  -72.1289 S.3       11 UNK        -0.2615 
     17 C17       -72.7741   31.2659  -71.3810 C.3       11 UNK        -0.0865 
     18 CA        -71.6449   31.7300  -72.3399 C.3       10 UNK         0.0862 
     19 C         -70.2659   31.7526  -71.6173 C.2       10 UNK         0.5551 
     20 N         -69.2682   30.9962  -72.0586 N.am      10 UNK        -0.7319 
     21 O         -70.0984   32.4774  -70.6395 O.2       10 UNK        -0.5018 
     22 N         -71.6692   30.9659  -73.5964 N.am      10 UNK        -0.4509 
     23 C         -71.1818   31.3777  -74.7737 C.2       10 UNK         0.4899 
     24 O         -70.5878   32.4435  -74.9381 O.2       10 UNK        -0.4839 
     25 CA        -71.4033   30.4440  -75.9800 C.3       9 UNK         0.0222 
     26 CB        -70.1223   29.6544  -76.2937 C.3       9 UNK        -0.1966 
     27 N         -72.5100   29.5032  -75.7789 N.am      9 UNK        -0.4218 
     28 C         -73.8080   29.8298  -75.7458 C.2       9 UNK         0.5020 
     29 O         -74.2421   30.9505  -76.0174 O.2       9 UNK        -0.5274 
     30 CA        -74.7685   28.6975  -75.3428 C.3       8 UNK         0.0270 
     31 CB        -76.1877   29.2023  -75.0168 C.3       8 UNK        -0.1976 
     32 N         -74.8378   27.6535  -76.3684 N.am      8 UNK        -0.4313 
     33 C         -73.9070   26.7137  -76.5762 C.2       8 UNK         0.5041 
     34 O         -72.8350   26.6632  -75.9655 O.2       8 UNK        -0.5577 
     35 CA        -74.2216   25.6775  -77.6626 C.3       7 UNK         0.0284 
     36 CB        -73.9407   26.2577  -79.0586 C.3       7 UNK        -0.1958 
     37 N         -73.3744   24.5009  -77.4609 N.am      7 UNK        -0.4454 
     38 C         -73.7276   23.2179  -77.2972 C.2       7 UNK         0.5089 
     39 O         -72.8725   22.3462  -77.1408 O.2       7 UNK        -0.5125 
     40 CA        -75.2242   22.8193  -77.2830 C.3       6 UNK         0.0408 
     41 CB        -75.4359   21.2928  -77.3638 C.3       6 UNK        -0.1791 
     42 N         -75.9545   23.3628  -76.1293 N.am      6 UNK        -0.4762 
     43 C         -75.6471   23.2298  -74.8275 C.2       6 UNK         0.5007 
     44 O         -74.7061   22.5576  -74.4038 O.2       6 UNK        -0.5032 
     45 CA        -76.5623   23.9559  -73.8189 C.3       5 UNK         0.0783 
     46 C46       -76.2108   25.4565  -73.6832 C.3       11 UNK        -0.0857 
     47 S47       -74.6422   25.7610  -72.8022 S.3       11 UNK        -0.2512 
     48 C48       -75.1970   26.0057  -71.0849 C.3       11 UNK         0.0225 
     49 N         -77.9814   23.7880  -74.1328 N.am      5 UNK        -0.4615 
     50 C         -78.6689   22.6441  -74.0248 C.2       4 UNK         0.5053 
     51 O         -78.1771   21.5766  -73.6594 O.2       4 UNK        -0.5105 
     52 CA        -80.1625   22.7086  -74.3766 C.3       4 UNK         0.0263 
     53 CB        -80.9709   23.3233  -73.2213 C.3       4 UNK        -0.1981 
     54 N         -80.3827   23.4860  -75.5960 N.am      4 UNK        -0.4224 
     55 C         -80.3296   22.9786  -76.8358 C.2       3 UNK         0.4895 
     56 O         -80.1656   21.7830  -77.0805 O.2       3 UNK        -0.5091 
     57 CA        -80.4843   23.9641  -78.0086 C.3       3 UNK         0.0250 
     58 CB        -81.9349   23.9760  -78.5171 C.3       3 UNK        -0.1996 
     59 N         -80.0682   25.3291  -77.6725 N.am      3 UNK        -0.4254 
     60 C         -78.7874   25.6940  -77.5121 C.2       2 UNK         0.5004 
     61 O         -77.8361   24.9290  -77.6581 O.2       2 UNK        -0.5226 
     62 CA        -78.5025   27.1353  -77.0591 C.3       2 UNK         0.0269 
     63 CB        -78.2659   28.0482  -78.2721 C.3       2 UNK        -0.1926 
     64 N         -79.5365   27.7119  -76.1964 N.am      2 UNK        -0.4687 
     65 C         -79.9062   27.1953  -75.0165 C.2       1 UNK         0.5165 
     66 O         -79.3943   26.1836  -74.5338 O.2       1 UNK        -0.5079 
     67 H67       -84.9042   25.7014  -75.3468 H         1 UNK         0.0900 
     68 H68       -83.7085   24.4026  -75.3009 H         1 UNK         0.0900 
     69 H69       -84.1156   25.2802  -73.8248 H         1 UNK         0.0900 
     70 H70       -82.4720   26.6961  -73.2479 H         1 UNK         0.2959 
     71 H71       -81.4181   28.7059  -74.9252 H         1 UNK         0.1079 
     72 H72       -81.4212   29.2213  -72.6301 H         1 UNK         0.0837 
     73 H73       -79.7366   29.0191  -73.0078 H         1 UNK         0.0837 
     74 H74       -79.8221   27.7316  -69.3337 H         1 UNK         0.0685 
     75 H75       -80.1412   29.2064  -70.2115 H         1 UNK         0.0685 
     76 H76       -77.8893   26.2105  -70.7043 H         1 UNK         0.1434 
     77 H77       -74.3440   28.5942  -71.0451 H         1 UNK         0.1329 
     78 H78       -78.1529   30.4776  -70.4457 H         1 UNK         0.1335 
     79 H79       -74.9405   31.1380  -69.7676 H         1 UNK         0.0680 
     80 H80       -76.2634   31.8484  -70.6509 H         1 UNK         0.0680 
     81 H81       -72.7619   31.8687  -70.4706 H         1 UNK         0.1032 
     82 H82       -72.6092   30.2343  -71.0663 H         1 UNK         0.1032 
     83 H83       -71.8520   32.7709  -72.5965 H         1 UNK         0.0461 
     84 H84       -69.3957   30.4058  -72.8643 H         1 UNK         0.3453 
     85 H85       -68.3790   31.0227  -71.5848 H         1 UNK         0.3453 
     86 H86       -72.1396   30.0749  -73.5606 H         1 UNK         0.2984 
     87 H87       -71.6405   31.0701  -76.8426 H         1 UNK         0.0554 
     88 H88       -69.2821   30.3272  -76.4721 H         1 UNK         0.0847 
     89 H89       -70.2420   29.0442  -77.1892 H         1 UNK         0.0847 
     90 H90       -69.8424   28.9931  -75.4727 H         1 UNK         0.0847 
     91 H91       -72.2770   28.5227  -75.6371 H         1 UNK         0.3141 
     92 H92       -74.3703   28.2589  -74.4253 H         1 UNK         0.0743 
     93 H93       -76.6895   29.6093  -75.8947 H         1 UNK         0.0784 
     94 H94       -76.8083   28.4081  -74.6023 H         1 UNK         0.0784 
     95 H95       -76.1543   29.9937  -74.2669 H         1 UNK         0.0784 
     96 H96       -75.6310   27.6924  -76.9890 H         1 UNK         0.3213 
     97 H97       -75.2792   25.4319  -77.5968 H         1 UNK         0.0855 
     98 H98       -72.8996   26.5653  -79.1667 H         1 UNK         0.0814 
     99 H99       -74.5616   27.1321  -79.2573 H         1 UNK         0.0814 
    100 H100      -74.1555   25.5278  -79.8394 H         1 UNK         0.0814 
    101 H101      -72.3980   24.7303  -77.3369 H         1 UNK         0.3105 
    102 H102      -75.6761   23.2466  -78.1789 H         1 UNK         0.0547 
    103 H103      -76.4957   21.0443  -77.4228 H         1 UNK         0.0837 
    104 H104      -75.0198   20.7770  -76.4977 H         1 UNK         0.0837 
    105 H105      -74.9557   20.8788  -78.2510 H         1 UNK         0.0837 
    106 H106      -76.7607   23.9280  -76.3818 H         1 UNK         0.3020 
    107 H107      -76.4011   23.4837  -72.8469 H         1 UNK         0.1245 
    108 H108      -77.0095   25.9822  -73.1609 H         1 UNK         0.0781 
    109 H109      -76.1600   25.9275  -74.6641 H         1 UNK         0.0781 
    110 H110      -74.3201   26.0646  -70.4385 H         1 UNK         0.0836 
    111 H111      -75.7543   25.1262  -70.7586 H         1 UNK         0.0836 
    112 H112      -78.4891   24.6369  -74.3752 H         1 UNK         0.3022 
    113 H113      -80.5179   21.6868  -74.5275 H         1 UNK         0.0747 
    114 H114      -82.0386   23.3190  -73.4397 H         1 UNK         0.0793 
    115 H115      -80.8272   22.7554  -72.3012 H         1 UNK         0.0793 
    116 H116      -80.6755   24.3529  -73.0160 H         1 UNK         0.0793 
    117 H117      -80.4601   24.4883  -75.4852 H         1 UNK         0.3047 
    118 H118      -79.8466   23.6060  -78.8201 H         1 UNK         0.0822 
    119 H119      -82.0511   24.6415  -79.3725 H         1 UNK         0.0807 
    120 H120      -82.6340   24.2967  -77.7447 H         1 UNK         0.0807 
    121 H121      -82.2422   22.9798  -78.8383 H         1 UNK         0.0807 
    122 H122      -80.8039   26.0025  -77.4863 H         1 UNK         0.2946 
    123 H123      -77.5869   27.0922  -76.4707 H         1 UNK         0.1144 
    124 H124      -77.9571   29.0482  -77.9677 H         1 UNK         0.0793 
    125 H125      -79.1657   28.1478  -78.8807 H         1 UNK         0.0793 
    126 H126      -77.4817   27.6493  -78.9175 H         1 UNK         0.0793 
    127 H127      -80.0284   28.5181  -76.5554 H         1 UNK         0.2896 
@<TRIPOS>BOND
     1    1    2 1    
     2    1   67 1    
     3    1   68 1    
     4    1   69 1    
     5    2    3 2    
     6    2    4 am   BACKBONE|DICT|INTERRES
     7    4    5 1    
     8    4   70 1    
     9    5    6 1    
    10    5   65 1    
    11    5   71 1    
    12    6    7 1    
    13    6   72 1    
    14    6   73 1    
    15    7    8 1    
    16    8    9 1    
    17    8   74 1    
    18    8   75 1    
    19    9   10 ar   
    20    9   14 ar   
    21   10   11 ar   
    22   10   76 1    
    23   11   12 ar   
    24   11   48 1    
    25   12   13 ar   
    26   12   77 1    
    27   13   14 ar   
    28   13   15 1    
    29   14   78 1    
    30   15   16 1    
    31   15   79 1    
    32   15   80 1    
    33   16   17 1    
    34   17   18 1    
    35   17   81 1    
    36   17   82 1    
    37   18   19 1    
    38   18   22 1    
    39   18   83 1    
    40   19   20 am   BACKBONE|DICT|INTERRES
    41   19   21 2    
    42   20   84 1    
    43   20   85 1    
    44   22   23 am   BACKBONE|DICT|INTERRES
    45   22   86 1    
    46   23   24 2    
    47   23   25 1    
    48   25   26 1    
    49   25   27 1    
    50   25   87 1    
    51   26   88 1    
    52   26   89 1    
    53   26   90 1    
    54   27   28 am   BACKBONE|DICT|INTERRES
    55   27   91 1    
    56   28   29 2    
    57   28   30 1    
    58   30   31 1    
    59   30   32 1    
    60   30   92 1    
    61   31   93 1    
    62   31   94 1    
    63   31   95 1    
    64   32   33 am   BACKBONE|DICT|INTERRES
    65   32   96 1    
    66   33   34 2    
    67   33   35 1    
    68   35   36 1    
    69   35   37 1    
    70   35   97 1    
    71   36   98 1    
    72   36   99 1    
    73   36  100 1    
    74   37   38 am   BACKBONE|DICT|INTERRES
    75   37  101 1    
    76   38   39 2    
    77   38   40 1    
    78   40   41 1    
    79   40   42 1    
    80   40  102 1    
    81   41  103 1    
    82   41  104 1    
    83   41  105 1    
    84   42   43 am   BACKBONE|DICT|INTERRES
    85   42  106 1    
    86   43   44 2    
    87   43   45 1    
    88   45   46 1    
    89   45   49 1    
    90   45  107 1    
    91   46   47 1    
    92   46  108 1    
    93   46  109 1    
    94   47   48 1    
    95   48  110 1    
    96   48  111 1    
    97   49   50 am   BACKBONE|DICT|INTERRES
    98   49  112 1    
    99   50   51 2    
   100   50   52 1    
   101   52   53 1    
   102   52   54 1    
   103   52  113 1    
   104   53  114 1    
   105   53  115 1    
   106   53  116 1    
   107   54   55 am   BACKBONE|DICT|INTERRES
   108   54  117 1    
   109   55   56 2    
   110   55   57 1    
   111   57   58 1    
   112   57   59 1    
   113   57  118 1    
   114   58  119 1    
   115   58  120 1    
   116   58  121 1    
   117   59   60 am   BACKBONE|DICT|INTERRES
   118   59  122 1    
   119   60   61 2    
   120   60   62 1    
   121   62   63 1    
   122   62   64 1    
   123   62  123 1    
   124   63  124 1    
   125   63  125 1    
   126   63  126 1    
   127   64   65 am   BACKBONE|DICT|INTERRES
   128   64  127 1    
   129   65   66 2    
@<TRIPOS>SUBSTRUCTURE
     1 UNK         1 GROUP             0       ****    0 ROOT    
