@<TRIPOS>MOLECULE
3R135
127   129    1
SMALL
USER_CHARGES


@<TRIPOS>ATOM
      1 CA        -82.2696   23.2894  -70.7843 C.3       0 UNK        -0.1998 
      2 C         -81.5282   24.5768  -71.1151 C.2       0 UNK         0.4909 
      3 O         -80.4823   24.8399  -70.5223 O.2       0 UNK        -0.5240 
      4 N         -82.0790   25.3707  -72.0457 N.am      1 UNK        -0.4739 
      5 CA        -81.5413   26.6287  -72.5855 C.3       1 UNK         0.0864 
      6 C6        -81.1377   27.6484  -71.4833 C.3       11 UNK        -0.0881 
      7 S7        -81.1699   29.3861  -72.0466 S.3       11 UNK        -0.2682 
      8 C8        -79.6188   30.0397  -71.3465 C.3       11 UNK         0.0289 
      9 C9        -78.3880   29.5439  -72.0939 C.ar      11 UNK        -0.0687 
     10 C10       -77.6463   28.4674  -71.5999 C.ar      11 UNK        -0.0823 
     11 C11       -76.5145   28.0124  -72.2803 C.ar      11 UNK        -0.0830 
     12 C12       -76.1227   28.6437  -73.4639 C.ar      11 UNK        -0.1021 
     13 C13       -76.8371   29.7423  -73.9561 C.ar      11 UNK        -0.0753 
     14 C14       -77.9725   30.1817  -73.2666 C.ar      11 UNK        -0.0933 
     15 C15       -76.4059   30.4591  -75.2340 C.3       11 UNK         0.0166 
     16 S16       -74.6081   30.7391  -75.3597 S.3       11 UNK        -0.2615 
     17 C17       -74.2991   31.7304  -73.8607 C.3       11 UNK        -0.0865 
     18 CA        -72.7922   31.9758  -73.5940 C.3       10 UNK         0.0862 
     19 C         -72.6184   32.9379  -72.3810 C.2       10 UNK         0.5551 
     20 N         -72.1248   32.4830  -71.2355 N.am      10 UNK        -0.7319 
     21 O         -72.9387   34.1194  -72.4857 O.2       10 UNK        -0.5018 
     22 N         -72.0329   30.7142  -73.5063 N.am      10 UNK        -0.4509 
     23 C         -70.6984   30.6177  -73.5117 C.2       10 UNK         0.4899 
     24 O         -69.9426   31.5819  -73.6360 O.2       10 UNK        -0.4839 
     25 CA        -70.0904   29.2144  -73.3449 C.3       9 UNK         0.0222 
     26 CB        -70.3183   28.6644  -71.9218 C.3       9 UNK        -0.1966 
     27 N         -70.4946   28.2504  -74.3771 N.am      9 UNK        -0.4218 
     28 C         -71.7011   27.7091  -74.5931 C.2       9 UNK         0.5020 
     29 O         -72.7055   27.9529  -73.9201 O.2       9 UNK        -0.5274 
     30 CA        -71.7702   26.6660  -75.7199 C.3       8 UNK         0.0270 
     31 CB        -71.5098   25.2608  -75.1551 C.3       8 UNK        -0.1976 
     32 N         -73.0691   26.6838  -76.3931 N.am      8 UNK        -0.4313 
     33 C         -73.4525   27.6239  -77.2680 C.2       8 UNK         0.5041 
     34 O         -72.7076   28.5271  -77.6548 O.2       8 UNK        -0.5577 
     35 CA        -74.9007   27.5446  -77.8019 C.3       7 UNK         0.0284 
     36 CB        -75.0847   28.2780  -79.1464 C.3       7 UNK        -0.1958 
     37 N         -75.4454   26.1837  -77.8810 N.am      7 UNK        -0.4454 
     38 C         -74.9549   25.1324  -78.5565 C.2       7 UNK         0.5089 
     39 O         -73.9585   25.1755  -79.2797 O.2       7 UNK        -0.5125 
     40 CA        -75.7078   23.8011  -78.3460 C.3       6 UNK         0.0408 
     41 CB        -74.9108   22.5680  -78.8204 C.3       6 UNK        -0.1791 
     42 N         -76.1559   23.6439  -76.9555 N.am      6 UNK        -0.4762 
     43 C         -75.3866   23.6006  -75.8560 C.2       6 UNK         0.5007 
     44 O         -74.1584   23.5490  -75.8856 O.2       6 UNK        -0.5032 
     45 CA        -76.0903   23.7057  -74.4874 C.3       5 UNK         0.0783 
     46 C46       -75.8830   25.1261  -73.9093 C.3       11 UNK        -0.0857 
     47 S47       -76.4237   25.2479  -72.1766 S.3       11 UNK        -0.2512 
     48 C48       -75.7058   26.8543  -71.7165 C.3       11 UNK         0.0225 
     49 N         -77.5125   23.3537  -74.5519 N.am      5 UNK        -0.4615 
     50 C         -77.9860   22.1124  -74.7215 C.2       4 UNK         0.5053 
     51 O         -77.2765   21.1083  -74.7813 O.2       4 UNK        -0.5105 
     52 CA        -79.5069   21.9764  -74.8822 C.3       4 UNK         0.0263 
     53 CB        -80.1917   21.8916  -73.5096 C.3       4 UNK        -0.1981 
     54 N         -80.0607   23.0967  -75.6476 N.am      4 UNK        -0.4224 
     55 C         -80.0110   23.1851  -76.9855 C.2       3 UNK         0.4895 
     56 O         -79.5555   22.3015  -77.7114 O.2       3 UNK        -0.5091 
     57 CA        -80.5420   24.4762  -77.6332 C.3       3 UNK         0.0250 
     58 CB        -82.0282   24.3237  -77.9942 C.3       3 UNK        -0.1996 
     59 N         -80.3664   25.6670  -76.7996 N.am      3 UNK        -0.4254 
     60 C         -79.1842   26.2202  -76.4960 C.2       2 UNK         0.5004 
     61 O         -78.1009   25.8003  -76.9001 O.2       2 UNK        -0.5226 
     62 CA        -79.2088   27.4357  -75.5585 C.3       2 UNK         0.0269 
     63 CB        -79.4020   28.7179  -76.3842 C.3       2 UNK        -0.1926 
     64 N         -80.2267   27.3855  -74.5026 N.am      2 UNK        -0.4687 
     65 C         -80.4277   26.3862  -73.6311 C.2       1 UNK         0.5165 
     66 O         -79.8154   25.3154  -73.6748 O.2       1 UNK        -0.5079 
     67 H67       -81.5881   22.4404  -70.8295 H         1 UNK         0.0900 
     68 H68       -82.6795   23.3421  -69.7761 H         1 UNK         0.0900 
     69 H69       -83.0896   23.1002  -71.4768 H         1 UNK         0.0900 
     70 H70       -82.9359   25.0635  -72.4848 H         1 UNK         0.2959 
     71 H71       -82.3820   27.0570  -73.1342 H         1 UNK         0.1079 
     72 H72       -80.1631   27.3971  -71.0663 H         1 UNK         0.0837 
     73 H73       -81.8366   27.5827  -70.6480 H         1 UNK         0.0837 
     74 H74       -79.5588   29.7795  -70.2885 H         1 UNK         0.0685 
     75 H75       -79.6506   31.1295  -71.3868 H         1 UNK         0.0685 
     76 H76       -77.9465   27.9794  -70.6829 H         1 UNK         0.1434 
     77 H77       -75.2486   28.2909  -73.9930 H         1 UNK         0.1329 
     78 H78       -78.5396   31.0224  -73.6423 H         1 UNK         0.1335 
     79 H79       -76.7245   29.8699  -76.0927 H         1 UNK         0.0680 
     80 H80       -76.9081   31.4239  -75.3197 H         1 UNK         0.0680 
     81 H81       -74.7483   31.2300  -73.0010 H         1 UNK         0.1032 
     82 H82       -74.8296   32.6781  -73.9737 H         1 UNK         0.1032 
     83 H83       -72.3956   32.5136  -74.4574 H         1 UNK         0.0461 
     84 H84       -72.0142   33.1144  -70.4579 H         1 UNK         0.3453 
     85 H85       -71.8635   31.5149  -71.1437 H         1 UNK         0.3453 
     86 H86       -72.5709   29.8527  -73.4751 H         1 UNK         0.2984 
     87 H87       -69.0122   29.3288  -73.4693 H         1 UNK         0.0554 
     88 H88       -69.9245   29.3520  -71.1723 H         1 UNK         0.0847 
     89 H89       -69.8114   27.7098  -71.7814 H         1 UNK         0.0847 
     90 H90       -71.3752   28.5155  -71.6990 H         1 UNK         0.0847 
     91 H91       -69.7520   27.9814  -75.0082 H         1 UNK         0.3141 
     92 H92       -70.9978   26.8887  -76.4594 H         1 UNK         0.0743 
     93 H93       -70.5295   25.2036  -74.6802 H         1 UNK         0.0784 
     94 H94       -71.5318   24.5066  -75.9422 H         1 UNK         0.0784 
     95 H95       -72.2513   24.9839  -74.4044 H         1 UNK         0.0784 
     96 H96       -73.7190   25.9528  -76.1433 H         1 UNK         0.3213 
     97 H97       -75.5110   28.0622  -77.0615 H         1 UNK         0.0855 
     98 H98       -74.4624   27.8440  -79.9297 H         1 UNK         0.0814 
     99 H99       -74.8126   29.3306  -79.0587 H         1 UNK         0.0814 
    100 H100      -76.1216   28.2406  -79.4800 H         1 UNK         0.0814 
    101 H101      -76.3185   26.0292  -77.3779 H         1 UNK         0.3105 
    102 H102      -76.6136   23.8629  -78.9509 H         1 UNK         0.0547 
    103 H103      -75.4681   21.6469  -78.6509 H         1 UNK         0.0837 
    104 H104      -73.9522   22.4803  -78.3085 H         1 UNK         0.0837 
    105 H105      -74.7015   22.6281  -79.8890 H         1 UNK         0.0837 
    106 H106      -77.1509   23.7622  -76.8113 H         1 UNK         0.3020 
    107 H107      -75.5939   22.9888  -73.8289 H         1 UNK         0.1245 
    108 H108      -76.4239   25.8674  -74.5000 H         1 UNK         0.0781 
    109 H109      -74.8288   25.4096  -73.9466 H         1 UNK         0.0781 
    110 H110      -74.6676   26.9102  -72.0491 H         1 UNK         0.0836 
    111 H111      -75.6766   26.9261  -70.6283 H         1 UNK         0.0836 
    112 H112      -78.1721   24.1143  -74.4320 H         1 UNK         0.3022 
    113 H113      -79.7101   21.0468  -75.4188 H         1 UNK         0.0747 
    114 H114      -81.2750   21.8205  -73.6071 H         1 UNK         0.0793 
    115 H115      -79.8553   21.0099  -72.9628 H         1 UNK         0.0793 
    116 H116      -79.9633   22.7604  -72.8921 H         1 UNK         0.0793 
    117 H117      -80.3767   23.8967  -75.1115 H         1 UNK         0.3047 
    118 H118      -79.9803   24.6314  -78.5572 H         1 UNK         0.0822 
    119 H119      -82.3978   25.1965  -78.5328 H         1 UNK         0.0807 
    120 H120      -82.6486   24.1871  -77.1075 H         1 UNK         0.0807 
    121 H121      -82.1860   23.4576  -78.6387 H         1 UNK         0.0807 
    122 H122      -81.2010   26.0891  -76.4195 H         1 UNK         0.2946 
    123 H123      -78.2375   27.4788  -75.0635 H         1 UNK         0.1144 
    124 H124      -79.3290   29.6099  -75.7633 H         1 UNK         0.0793 
    125 H125      -80.3745   28.7367  -76.8776 H         1 UNK         0.0793 
    126 H126      -78.6424   28.8005  -77.1629 H         1 UNK         0.0793 
    127 H127      -80.7597   28.2336  -74.3668 H         1 UNK         0.2896 
@<TRIPOS>BOND
     1    1    2 1    
     2    1   67 1    
     3    1   68 1    
     4    1   69 1    
     5    2    3 2    
     6    2    4 am   BACKBONE|DICT|INTERRES
     7    4    5 1    
     8    4   70 1    
     9    5    6 1    
    10    5   65 1    
    11    5   71 1    
    12    6    7 1    
    13    6   72 1    
    14    6   73 1    
    15    7    8 1    
    16    8    9 1    
    17    8   74 1    
    18    8   75 1    
    19    9   10 ar   
    20    9   14 ar   
    21   10   11 ar   
    22   10   76 1    
    23   11   12 ar   
    24   11   48 1    
    25   12   13 ar   
    26   12   77 1    
    27   13   14 ar   
    28   13   15 1    
    29   14   78 1    
    30   15   16 1    
    31   15   79 1    
    32   15   80 1    
    33   16   17 1    
    34   17   18 1    
    35   17   81 1    
    36   17   82 1    
    37   18   19 1    
    38   18   22 1    
    39   18   83 1    
    40   19   20 am   BACKBONE|DICT|INTERRES
    41   19   21 2    
    42   20   84 1    
    43   20   85 1    
    44   22   23 am   BACKBONE|DICT|INTERRES
    45   22   86 1    
    46   23   24 2    
    47   23   25 1    
    48   25   26 1    
    49   25   27 1    
    50   25   87 1    
    51   26   88 1    
    52   26   89 1    
    53   26   90 1    
    54   27   28 am   BACKBONE|DICT|INTERRES
    55   27   91 1    
    56   28   29 2    
    57   28   30 1    
    58   30   31 1    
    59   30   32 1    
    60   30   92 1    
    61   31   93 1    
    62   31   94 1    
    63   31   95 1    
    64   32   33 am   BACKBONE|DICT|INTERRES
    65   32   96 1    
    66   33   34 2    
    67   33   35 1    
    68   35   36 1    
    69   35   37 1    
    70   35   97 1    
    71   36   98 1    
    72   36   99 1    
    73   36  100 1    
    74   37   38 am   BACKBONE|DICT|INTERRES
    75   37  101 1    
    76   38   39 2    
    77   38   40 1    
    78   40   41 1    
    79   40   42 1    
    80   40  102 1    
    81   41  103 1    
    82   41  104 1    
    83   41  105 1    
    84   42   43 am   BACKBONE|DICT|INTERRES
    85   42  106 1    
    86   43   44 2    
    87   43   45 1    
    88   45   46 1    
    89   45   49 1    
    90   45  107 1    
    91   46   47 1    
    92   46  108 1    
    93   46  109 1    
    94   47   48 1    
    95   48  110 1    
    96   48  111 1    
    97   49   50 am   BACKBONE|DICT|INTERRES
    98   49  112 1    
    99   50   51 2    
   100   50   52 1    
   101   52   53 1    
   102   52   54 1    
   103   52  113 1    
   104   53  114 1    
   105   53  115 1    
   106   53  116 1    
   107   54   55 am   BACKBONE|DICT|INTERRES
   108   54  117 1    
   109   55   56 2    
   110   55   57 1    
   111   57   58 1    
   112   57   59 1    
   113   57  118 1    
   114   58  119 1    
   115   58  120 1    
   116   58  121 1    
   117   59   60 am   BACKBONE|DICT|INTERRES
   118   59  122 1    
   119   60   61 2    
   120   60   62 1    
   121   62   63 1    
   122   62   64 1    
   123   62  123 1    
   124   63  124 1    
   125   63  125 1    
   126   63  126 1    
   127   64   65 am   BACKBONE|DICT|INTERRES
   128   64  127 1    
   129   65   66 2    
@<TRIPOS>SUBSTRUCTURE
     1 UNK         1 GROUP             0       ****    0 ROOT    
