@<TRIPOS>MOLECULE
3R135
127   129    1
SMALL
USER_CHARGES


@<TRIPOS>ATOM
      1 CA        -83.6103   28.0557  -70.9446 C.3       0 UNK        -0.1998 
      2 C         -83.1805   28.3131  -72.3810 C.2       0 UNK         0.4909 
      3 O         -84.0267   28.3631  -73.2741 O.2       0 UNK        -0.5240 
      4 N         -81.8709   28.4801  -72.6067 N.am      1 UNK        -0.4739 
      5 CA        -81.2688   28.7149  -73.9259 C.3       1 UNK         0.0864 
      6 C6        -79.8145   29.2334  -73.8109 C.3       11 UNK        -0.0881 
      7 S7        -79.6992   30.9091  -73.0840 S.3       11 UNK        -0.2682 
      8 C8        -79.5101   30.6240  -71.2892 C.3       11 UNK         0.0289 
      9 C9        -78.2299   29.8756  -70.9516 C.ar      11 UNK        -0.0687 
     10 C10       -78.2650   28.4954  -70.7376 C.ar      11 UNK        -0.0823 
     11 C11       -77.0859   27.7821  -70.5137 C.ar      11 UNK        -0.0830 
     12 C12       -75.8736   28.4711  -70.4422 C.ar      11 UNK        -0.1021 
     13 C13       -75.8208   29.8555  -70.6293 C.ar      11 UNK        -0.0753 
     14 C14       -77.0093   30.5553  -70.8751 C.ar      11 UNK        -0.0933 
     15 C15       -74.4546   30.5408  -70.5913 C.3       11 UNK         0.0166 
     16 S16       -74.2572   31.9902  -71.6883 S.3       11 UNK        -0.2615 
     17 C17       -74.7114   31.4545  -73.3813 C.3       11 UNK        -0.0865 
     18 CA        -74.5703   29.9523  -73.7563 C.3       10 UNK         0.0862 
     19 C         -75.2076   29.7056  -75.1482 C.2       10 UNK         0.5551 
     20 N         -76.5231   29.5435  -75.1960 N.am      10 UNK        -0.7319 
     21 O         -74.5418   29.7233  -76.1820 O.2       10 UNK        -0.5018 
     22 N         -73.1722   29.5041  -73.7465 N.am      10 UNK        -0.4509 
     23 C         -72.7315   28.3618  -73.2080 C.2       10 UNK         0.4899 
     24 O         -73.4080   27.6362  -72.4772 O.2       10 UNK        -0.4839 
     25 CA        -71.2843   27.9605  -73.5555 C.3       9 UNK         0.0222 
     26 CB        -70.8194   26.7060  -72.7923 C.3       9 UNK        -0.1966 
     27 N         -71.1140   27.7228  -74.9916 N.am      9 UNK        -0.4218 
     28 C         -70.9860   28.6621  -75.9345 C.2       9 UNK         0.5020 
     29 O         -71.0021   29.8698  -75.6880 O.2       9 UNK        -0.5274 
     30 CA        -70.7967   28.2030  -77.3935 C.3       8 UNK         0.0270 
     31 CB        -69.3066   27.9574  -77.7007 C.3       8 UNK        -0.1976 
     32 N         -71.6226   27.0633  -77.8216 N.am      8 UNK        -0.4313 
     33 C         -71.6050   25.7854  -77.4185 C.2       8 UNK         0.5041 
     34 O         -70.8755   25.3626  -76.5190 O.2       8 UNK        -0.5577 
     35 CA        -72.5931   24.8337  -78.1306 C.3       7 UNK         0.0284 
     36 CB        -72.3693   23.3585  -77.7499 C.3       7 UNK        -0.1958 
     37 N         -73.9833   25.1838  -77.8369 N.am      7 UNK        -0.4454 
     38 C         -74.6301   26.2691  -78.2802 C.2       7 UNK         0.5089 
     39 O         -74.1697   27.0203  -79.1424 O.2       7 UNK        -0.5125 
     40 CA        -75.9934   26.6055  -77.6431 C.3       6 UNK         0.0408 
     41 CB        -77.1300   26.3350  -78.6404 C.3       6 UNK        -0.1791 
     42 N         -76.2992   25.9322  -76.3726 N.am      6 UNK        -0.4762 
     43 C         -75.5553   25.9447  -75.2533 C.2       6 UNK         0.5007 
     44 O         -74.4420   26.4562  -75.1754 O.2       6 UNK        -0.5032 
     45 CA        -76.1517   25.2411  -74.0221 C.3       5 UNK         0.0783 
     46 C46       -77.0932   26.2129  -73.2728 C.3       11 UNK        -0.0857 
     47 S47       -77.9341   25.4648  -71.8320 S.3       11 UNK        -0.2512 
     48 C48       -77.1034   26.2612  -70.4124 C.3       11 UNK         0.0225 
     49 N         -76.8181   23.9999  -74.4216 N.am      5 UNK        -0.4615 
     50 C         -76.1844   22.8553  -74.7084 C.2       4 UNK         0.5053 
     51 O         -74.9672   22.7042  -74.6072 O.2       4 UNK        -0.5105 
     52 CA        -77.0501   21.6814  -75.2015 C.3       4 UNK         0.0263 
     53 CB        -77.5219   20.8278  -74.0134 C.3       4 UNK        -0.1981 
     54 N         -78.2143   22.1194  -75.9751 N.am      4 UNK        -0.4224 
     55 C         -78.1529   22.6752  -77.1941 C.2       3 UNK         0.4895 
     56 O         -77.1140   22.7849  -77.8448 O.2       3 UNK        -0.5091 
     57 CA        -79.4674   23.2343  -77.7728 C.3       3 UNK         0.0250 
     58 CB        -80.1479   22.1858  -78.6672 C.3       3 UNK        -0.1996 
     59 N         -80.4214   23.7029  -76.7581 N.am      3 UNK        -0.4254 
     60 C         -80.1839   24.6812  -75.8724 C.2       2 UNK         0.5004 
     61 O         -79.1122   25.2856  -75.7985 O.2       2 UNK        -0.5226 
     62 CA        -81.3037   24.9601  -74.8545 C.3       2 UNK         0.0269 
     63 CB        -81.2981   23.8823  -73.7565 C.3       2 UNK        -0.1926 
     64 N         -81.1975   26.2721  -74.2102 N.am      2 UNK        -0.4687 
     65 C         -81.3394   27.4575  -74.8223 C.2       1 UNK         0.5165 
     66 O         -81.5602   27.5843  -76.0278 O.2       1 UNK        -0.5079 
     67 H67       -84.3048   28.8288  -70.6170 H         1 UNK         0.0900 
     68 H68       -84.1136   27.0920  -70.8712 H         1 UNK         0.0900 
     69 H69       -82.7632   28.0489  -70.2590 H         1 UNK         0.0900 
     70 H70       -81.2287   28.4404  -71.8311 H         1 UNK         0.2959 
     71 H71       -81.8608   29.4846  -74.4270 H         1 UNK         0.1079 
     72 H72       -79.3723   29.3011  -74.8067 H         1 UNK         0.0837 
     73 H73       -79.1895   28.5315  -73.2610 H         1 UNK         0.0837 
     74 H74       -80.3815   30.0948  -70.9036 H         1 UNK         0.0685 
     75 H75       -79.5041   31.5914  -70.7847 H         1 UNK         0.0685 
     76 H76       -79.2028   27.9618  -70.7965 H         1 UNK         0.1434 
     77 H77       -74.9567   27.9211  -70.2780 H         1 UNK         0.1329 
     78 H78       -76.9865   31.6241  -71.0353 H         1 UNK         0.1335 
     79 H79       -73.6645   29.8283  -70.8276 H         1 UNK         0.0680 
     80 H80       -74.2683   30.8646  -69.5668 H         1 UNK         0.0680 
     81 H81       -74.1334   32.0629  -74.0796 H         1 UNK         0.1032 
     82 H82       -75.7483   31.7688  -73.5187 H         1 UNK         0.1032 
     83 H83       -75.1469   29.3496  -73.0589 H         1 UNK         0.0461 
     84 H84       -76.9647   29.4174  -76.0919 H         1 UNK         0.3453 
     85 H85       -77.0796   29.5876  -74.3578 H         1 UNK         0.3453 
     86 H86       -72.5556   29.9731  -74.4024 H         1 UNK         0.2984 
     87 H87       -70.6368   28.7879  -73.2577 H         1 UNK         0.0554 
     88 H88       -70.9061   26.8489  -71.7144 H         1 UNK         0.0847 
     89 H89       -69.7754   26.4755  -73.0050 H         1 UNK         0.0847 
     90 H90       -71.4163   25.8317  -73.0559 H         1 UNK         0.0847 
     91 H91       -71.1016   26.7542  -75.3066 H         1 UNK         0.3141 
     92 H92       -71.1220   29.0376  -78.0167 H         1 UNK         0.0743 
     93 H93       -68.7107   28.8411  -77.4678 H         1 UNK         0.0784 
     94 H94       -68.9007   27.1309  -77.1165 H         1 UNK         0.0784 
     95 H95       -69.1511   27.7310  -78.7555 H         1 UNK         0.0784 
     96 H96       -72.3511   27.2949  -78.4934 H         1 UNK         0.3213 
     97 H97       -72.4273   24.9320  -79.2057 H         1 UNK         0.0855 
     98 H98       -72.5454   23.1847  -76.6871 H         1 UNK         0.0814 
     99 H99       -71.3456   23.0502  -77.9663 H         1 UNK         0.0814 
    100 H100      -73.0315   22.6987  -78.3108 H         1 UNK         0.0814 
    101 H101      -74.4332   24.6537  -77.1043 H         1 UNK         0.3105 
    102 H102      -75.9819   27.6755  -77.4329 H         1 UNK         0.0547 
    103 H103      -76.9946   26.9175  -79.5526 H         1 UNK         0.0837 
    104 H104      -78.1013   26.6052  -78.2253 H         1 UNK         0.0837 
    105 H105      -77.1643   25.2850  -78.9303 H         1 UNK         0.0837 
    106 H106      -77.2254   25.5193  -76.3025 H         1 UNK         0.3020 
    107 H107      -75.3234   24.9928  -73.3538 H         1 UNK         0.1245 
    108 H108      -77.8718   26.5861  -73.9392 H         1 UNK         0.0781 
    109 H109      -76.5290   27.0937  -72.9645 H         1 UNK         0.0781 
    110 H110      -76.0887   25.8661  -70.3424 H         1 UNK         0.0836 
    111 H111      -77.6127   25.9703  -69.4929 H         1 UNK         0.0836 
    112 H112      -77.8142   24.0717  -74.5797 H         1 UNK         0.3022 
    113 H113      -76.4272   21.0581  -75.8468 H         1 UNK         0.0747 
    114 H114      -78.0784   19.9525  -74.3489 H         1 UNK         0.0793 
    115 H115      -76.6720   20.4662  -73.4326 H         1 UNK         0.0793 
    116 H116      -78.1614   21.3949  -73.3355 H         1 UNK         0.0793 
    117 H117      -79.1153   22.0500  -75.5260 H         1 UNK         0.3047 
    118 H118      -79.2085   24.0932  -78.3944 H         1 UNK         0.0822 
    119 H119      -81.0257   22.5976  -79.1656 H         1 UNK         0.0807 
    120 H120      -80.4631   21.3106  -78.0976 H         1 UNK         0.0807 
    121 H121      -79.4688   21.8391  -79.4476 H         1 UNK         0.0807 
    122 H122      -81.3211   23.2434  -76.7444 H         1 UNK         0.2946 
    123 H123      -82.2588   24.9269  -75.3835 H         1 UNK         0.1144 
    124 H124      -80.3596   23.8785  -73.2001 H         1 UNK         0.0793 
    125 H125      -81.4328   22.8847  -74.1762 H         1 UNK         0.0793 
    126 H126      -82.1080   24.0388  -73.0435 H         1 UNK         0.0793 
    127 H127      -81.0050   26.2711  -73.2199 H         1 UNK         0.2896 
@<TRIPOS>BOND
     1    1    2 1    
     2    1   67 1    
     3    1   68 1    
     4    1   69 1    
     5    2    3 2    
     6    2    4 am   BACKBONE|DICT|INTERRES
     7    4    5 1    
     8    4   70 1    
     9    5    6 1    
    10    5   65 1    
    11    5   71 1    
    12    6    7 1    
    13    6   72 1    
    14    6   73 1    
    15    7    8 1    
    16    8    9 1    
    17    8   74 1    
    18    8   75 1    
    19    9   10 ar   
    20    9   14 ar   
    21   10   11 ar   
    22   10   76 1    
    23   11   12 ar   
    24   11   48 1    
    25   12   13 ar   
    26   12   77 1    
    27   13   14 ar   
    28   13   15 1    
    29   14   78 1    
    30   15   16 1    
    31   15   79 1    
    32   15   80 1    
    33   16   17 1    
    34   17   18 1    
    35   17   81 1    
    36   17   82 1    
    37   18   19 1    
    38   18   22 1    
    39   18   83 1    
    40   19   20 am   BACKBONE|DICT|INTERRES
    41   19   21 2    
    42   20   84 1    
    43   20   85 1    
    44   22   23 am   BACKBONE|DICT|INTERRES
    45   22   86 1    
    46   23   24 2    
    47   23   25 1    
    48   25   26 1    
    49   25   27 1    
    50   25   87 1    
    51   26   88 1    
    52   26   89 1    
    53   26   90 1    
    54   27   28 am   BACKBONE|DICT|INTERRES
    55   27   91 1    
    56   28   29 2    
    57   28   30 1    
    58   30   31 1    
    59   30   32 1    
    60   30   92 1    
    61   31   93 1    
    62   31   94 1    
    63   31   95 1    
    64   32   33 am   BACKBONE|DICT|INTERRES
    65   32   96 1    
    66   33   34 2    
    67   33   35 1    
    68   35   36 1    
    69   35   37 1    
    70   35   97 1    
    71   36   98 1    
    72   36   99 1    
    73   36  100 1    
    74   37   38 am   BACKBONE|DICT|INTERRES
    75   37  101 1    
    76   38   39 2    
    77   38   40 1    
    78   40   41 1    
    79   40   42 1    
    80   40  102 1    
    81   41  103 1    
    82   41  104 1    
    83   41  105 1    
    84   42   43 am   BACKBONE|DICT|INTERRES
    85   42  106 1    
    86   43   44 2    
    87   43   45 1    
    88   45   46 1    
    89   45   49 1    
    90   45  107 1    
    91   46   47 1    
    92   46  108 1    
    93   46  109 1    
    94   47   48 1    
    95   48  110 1    
    96   48  111 1    
    97   49   50 am   BACKBONE|DICT|INTERRES
    98   49  112 1    
    99   50   51 2    
   100   50   52 1    
   101   52   53 1    
   102   52   54 1    
   103   52  113 1    
   104   53  114 1    
   105   53  115 1    
   106   53  116 1    
   107   54   55 am   BACKBONE|DICT|INTERRES
   108   54  117 1    
   109   55   56 2    
   110   55   57 1    
   111   57   58 1    
   112   57   59 1    
   113   57  118 1    
   114   58  119 1    
   115   58  120 1    
   116   58  121 1    
   117   59   60 am   BACKBONE|DICT|INTERRES
   118   59  122 1    
   119   60   61 2    
   120   60   62 1    
   121   62   63 1    
   122   62   64 1    
   123   62  123 1    
   124   63  124 1    
   125   63  125 1    
   126   63  126 1    
   127   64   65 am   BACKBONE|DICT|INTERRES
   128   64  127 1    
   129   65   66 2    
@<TRIPOS>SUBSTRUCTURE
     1 UNK         1 GROUP             0       ****    0 ROOT    
