@<TRIPOS>MOLECULE
3R135
127   129    1
SMALL
USER_CHARGES


@<TRIPOS>ATOM
      1 CA        -83.0549   24.9313  -70.8125 C.3       0 UNK        -0.1998 
      2 C         -81.8520   25.8705  -70.8188 C.2       0 UNK         0.4909 
      3 O         -80.8981   25.6334  -70.0821 O.2       0 UNK        -0.5240 
      4 N         -81.8463   26.9500  -71.6134 N.am      1 UNK        -0.4739 
      5 CA        -82.8865   27.3706  -72.5612 C.3       1 UNK         0.0864 
      6 C6        -82.8234   28.8939  -72.8536 C.3       11 UNK        -0.0881 
      7 S7        -81.1572   29.5040  -73.2904 S.3       11 UNK        -0.2682 
      8 C8        -80.6022   30.2305  -71.7113 C.3       11 UNK         0.0289 
      9 C9        -79.1254   29.9476  -71.4978 C.ar      11 UNK        -0.0687 
     10 C10       -78.7270   28.7732  -70.8511 C.ar      11 UNK        -0.0823 
     11 C11       -77.3737   28.4425  -70.7597 C.ar      11 UNK        -0.0830 
     12 C12       -76.4127   29.3323  -71.2476 C.ar      11 UNK        -0.1021 
     13 C13       -76.7989   30.4954  -71.9152 C.ar      11 UNK        -0.0753 
     14 C14       -78.1571   30.8114  -72.0211 C.ar      11 UNK        -0.0933 
     15 C15       -75.7490   31.3351  -72.6229 C.3       11 UNK         0.0166 
     16 S16       -75.6415   30.8220  -74.3669 S.3       11 UNK        -0.2615 
     17 C17       -74.0234   31.4921  -74.8764 C.3       11 UNK        -0.0865 
     18 CA        -73.0992   30.3887  -75.4713 C.3       10 UNK         0.0862 
     19 C         -71.8428   30.9695  -76.1932 C.2       10 UNK         0.5551 
     20 N         -70.7108   30.2754  -76.2240 N.am      10 UNK        -0.7319 
     21 O         -71.8981   32.0571  -76.7627 O.2       10 UNK        -0.5018 
     22 N         -72.8135   29.2942  -74.5261 N.am      10 UNK        -0.4509 
     23 C         -72.0765   29.3839  -73.4115 C.2       10 UNK         0.4899 
     24 O         -71.6377   30.4405  -72.9563 O.2       10 UNK        -0.4839 
     25 CA        -71.7357   28.0657  -72.6892 C.3       9 UNK         0.0222 
     26 CB        -72.7593   27.7894  -71.5762 C.3       9 UNK        -0.1966 
     27 N         -71.6513   26.8834  -73.5556 N.am      9 UNK        -0.4218 
     28 C         -70.8916   26.7323  -74.6501 C.2       9 UNK         0.5020 
     29 O         -70.1406   27.6018  -75.0943 O.2       9 UNK        -0.5274 
     30 CA        -70.9976   25.3871  -75.3809 C.3       8 UNK         0.0270 
     31 CB        -71.2889   24.1972  -74.4429 C.3       8 UNK        -0.1976 
     32 N         -72.0432   25.4617  -76.4012 N.am      8 UNK        -0.4313 
     33 C         -71.9006   25.0725  -77.6756 C.2       8 UNK         0.5041 
     34 O         -70.8360   24.6626  -78.1425 O.2       8 UNK        -0.5577 
     35 CA        -73.1378   25.0989  -78.5982 C.3       7 UNK         0.0284 
     36 CB        -73.5600   23.6652  -78.9634 C.3       7 UNK        -0.1958 
     37 N         -74.3003   25.7906  -78.0409 N.am      7 UNK        -0.4454 
     38 C         -74.4325   27.1176  -77.9272 C.2       7 UNK         0.5089 
     39 O         -73.5939   27.9297  -78.3162 O.2       7 UNK        -0.5125 
     40 CA        -75.7041   27.6173  -77.2157 C.3       6 UNK         0.0408 
     41 CB        -76.8460   27.8005  -78.2261 C.3       6 UNK        -0.1791 
     42 N         -76.1464   26.7532  -76.1121 N.am      6 UNK        -0.4762 
     43 C         -75.3944   26.4366  -75.0466 C.2       6 UNK         0.5007 
     44 O         -74.2221   26.7842  -74.9169 O.2       6 UNK        -0.5032 
     45 CA        -76.0487   25.5871  -73.9444 C.3       5 UNK         0.0783 
     46 C46       -76.9781   26.4740  -73.0918 C.3       11 UNK        -0.0857 
     47 S47       -77.4122   25.7465  -71.4714 S.3       11 UNK        -0.2512 
     48 C48       -76.9520   27.0607  -70.2763 C.3       11 UNK         0.0225 
     49 N         -76.7365   24.4390  -74.5332 N.am      5 UNK        -0.4615 
     50 C         -76.1003   23.3476  -74.9832 C.2       4 UNK         0.5053 
     51 O         -74.8968   23.1448  -74.8237 O.2       4 UNK        -0.5105 
     52 CA        -76.9320   22.3225  -75.7761 C.3       4 UNK         0.0263 
     53 CB        -77.5191   21.2611  -74.8323 C.3       4 UNK        -0.1981 
     54 N         -78.0137   22.9309  -76.5548 N.am      4 UNK        -0.4224 
     55 C         -77.8465   23.8355  -77.5309 C.2       3 UNK         0.4895 
     56 O         -76.7458   24.1949  -77.9486 O.2       3 UNK        -0.5091 
     57 CA        -79.1152   24.4862  -78.1124 C.3       3 UNK         0.0250 
     58 CB        -79.4894   23.8242  -79.4478 C.3       3 UNK        -0.1996 
     59 N         -80.2809   24.4730  -77.2193 N.am      3 UNK        -0.4254 
     60 C         -80.3456   25.0412  -76.0061 C.2       2 UNK         0.5004 
     61 O         -79.3953   25.6057  -75.4569 O.2       2 UNK        -0.5226 
     62 CA        -81.6836   24.8903  -75.2737 C.3       2 UNK         0.0269 
     63 CB        -81.8291   23.4692  -74.6990 C.3       2 UNK        -0.1926 
     64 N         -81.7897   25.8531  -74.1778 N.am      2 UNK        -0.4687 
     65 C         -82.9051   26.5208  -73.8515 C.2       1 UNK         0.5165 
     66 O         -83.9521   26.4460  -74.4964 O.2       1 UNK        -0.5079 
     67 H67       -83.2039   24.4760  -71.7906 H         1 UNK         0.0900 
     68 H68       -83.9629   25.4593  -70.5240 H         1 UNK         0.0900 
     69 H69       -82.9027   24.1249  -70.0954 H         1 UNK         0.0900 
     70 H70       -81.0273   27.5397  -71.6192 H         1 UNK         0.2959 
     71 H71       -83.8552   27.1965  -72.0890 H         1 UNK         0.1079 
     72 H72       -83.1859   29.4446  -71.9843 H         1 UNK         0.0837 
     73 H73       -83.5103   29.1617  -73.6591 H         1 UNK         0.0837 
     74 H74       -80.7902   31.3052  -71.7205 H         1 UNK         0.0685 
     75 H75       -81.1747   29.8241  -70.8761 H         1 UNK         0.0685 
     76 H76       -79.4658   28.0759  -70.4822 H         1 UNK         0.1434 
     77 H77       -75.3659   29.0701  -71.2036 H         1 UNK         0.1329 
     78 H78       -78.4616   31.6953  -72.5648 H         1 UNK         0.1335 
     79 H79       -76.0005   32.3950  -72.5639 H         1 UNK         0.0680 
     80 H80       -74.7786   31.2108  -72.1390 H         1 UNK         0.0680 
     81 H81       -73.5353   31.9962  -74.0413 H         1 UNK         0.1032 
     82 H82       -74.2221   32.2680  -75.6177 H         1 UNK         0.1032 
     83 H83       -73.6555   29.9168  -76.2799 H         1 UNK         0.0461 
     84 H84       -69.9124   30.6593  -76.7031 H         1 UNK         0.3453 
     85 H85       -70.6390   29.3678  -75.7741 H         1 UNK         0.3453 
     86 H86       -73.1731   28.3803  -74.7853 H         1 UNK         0.2984 
     87 H87       -70.7547   28.1961  -72.2286 H         1 UNK         0.0554 
     88 H88       -72.4541   26.9473  -70.9548 H         1 UNK         0.0847 
     89 H89       -73.7437   27.5636  -71.9877 H         1 UNK         0.0847 
     90 H90       -72.8662   28.6525  -70.9173 H         1 UNK         0.0847 
     91 H91       -72.2636   26.1182  -73.3153 H         1 UNK         0.3141 
     92 H92       -70.0227   25.2161  -75.8421 H         1 UNK         0.0743 
     93 H93       -70.5864   24.1686  -73.6088 H         1 UNK         0.0784 
     94 H94       -72.2989   24.2304  -74.0319 H         1 UNK         0.0784 
     95 H95       -71.1899   23.2521  -74.9772 H         1 UNK         0.0784 
     96 H96       -72.9329   25.8466  -76.0973 H         1 UNK         0.3213 
     97 H97       -72.8433   25.6130  -79.5156 H         1 UNK         0.0855 
     98 H98       -72.7371   23.1161  -79.4230 H         1 UNK         0.0814 
     99 H99       -74.3863   23.6637  -79.6746 H         1 UNK         0.0814 
    100 H100      -73.8769   23.1045  -78.0826 H         1 UNK         0.0814 
    101 H101      -75.0833   25.2082  -77.7534 H         1 UNK         0.3105 
    102 H102      -75.4835   28.5934  -76.7817 H         1 UNK         0.0547 
    103 H103      -76.5840   28.5541  -78.9698 H         1 UNK         0.0837 
    104 H104      -77.0566   26.8780  -78.7665 H         1 UNK         0.0837 
    105 H105      -77.7647   28.1307  -77.7408 H         1 UNK         0.0837 
    106 H106      -77.1006   26.4199  -76.1429 H         1 UNK         0.3020 
    107 H107      -75.2434   25.2232  -73.3017 H         1 UNK         0.1245 
    108 H108      -77.9011   26.7102  -73.6230 H         1 UNK         0.0781 
    109 H109      -76.4857   27.4296  -72.9356 H         1 UNK         0.0781 
    110 H110      -75.8745   27.0232  -70.1082 H         1 UNK         0.0836 
    111 H111      -77.4210   26.8495  -69.3144 H         1 UNK         0.0836 
    112 H112      -77.7243   24.5589  -74.7263 H         1 UNK         0.3022 
    113 H113      -76.2582   21.8265  -76.4780 H         1 UNK         0.0747 
    114 H114      -78.0402   20.4804  -75.3867 H         1 UNK         0.0793 
    115 H115      -76.7312   20.7749  -74.2551 H         1 UNK         0.0793 
    116 H116      -78.2224   21.6967  -74.1211 H         1 UNK         0.0793 
    117 H117      -78.9567   22.6918  -76.2875 H         1 UNK         0.3047 
    118 H118      -78.8790   25.5327  -78.3076 H         1 UNK         0.0822 
    119 H119      -80.3190   24.3416  -79.9302 H         1 UNK         0.0807 
    120 H120      -79.7741   22.7796  -79.3156 H         1 UNK         0.0807 
    121 H121      -78.6492   23.8471  -80.1438 H         1 UNK         0.0807 
    122 H122      -81.1060   24.0136  -77.5784 H         1 UNK         0.2946 
    123 H123      -82.4770   25.0672  -76.0040 H         1 UNK         0.1144 
    124 H124      -82.7926   23.3400  -74.2056 H         1 UNK         0.0793 
    125 H125      -81.0491   23.2486  -73.9689 H         1 UNK         0.0793 
    126 H126      -81.7686   22.7130  -75.4826 H         1 UNK         0.0793 
    127 H127      -80.9390   26.0201  -73.6564 H         1 UNK         0.2896 
@<TRIPOS>BOND
     1    1    2 1    
     2    1   67 1    
     3    1   68 1    
     4    1   69 1    
     5    2    3 2    
     6    2    4 am   BACKBONE|DICT|INTERRES
     7    4    5 1    
     8    4   70 1    
     9    5    6 1    
    10    5   65 1    
    11    5   71 1    
    12    6    7 1    
    13    6   72 1    
    14    6   73 1    
    15    7    8 1    
    16    8    9 1    
    17    8   74 1    
    18    8   75 1    
    19    9   10 ar   
    20    9   14 ar   
    21   10   11 ar   
    22   10   76 1    
    23   11   12 ar   
    24   11   48 1    
    25   12   13 ar   
    26   12   77 1    
    27   13   14 ar   
    28   13   15 1    
    29   14   78 1    
    30   15   16 1    
    31   15   79 1    
    32   15   80 1    
    33   16   17 1    
    34   17   18 1    
    35   17   81 1    
    36   17   82 1    
    37   18   19 1    
    38   18   22 1    
    39   18   83 1    
    40   19   20 am   BACKBONE|DICT|INTERRES
    41   19   21 2    
    42   20   84 1    
    43   20   85 1    
    44   22   23 am   BACKBONE|DICT|INTERRES
    45   22   86 1    
    46   23   24 2    
    47   23   25 1    
    48   25   26 1    
    49   25   27 1    
    50   25   87 1    
    51   26   88 1    
    52   26   89 1    
    53   26   90 1    
    54   27   28 am   BACKBONE|DICT|INTERRES
    55   27   91 1    
    56   28   29 2    
    57   28   30 1    
    58   30   31 1    
    59   30   32 1    
    60   30   92 1    
    61   31   93 1    
    62   31   94 1    
    63   31   95 1    
    64   32   33 am   BACKBONE|DICT|INTERRES
    65   32   96 1    
    66   33   34 2    
    67   33   35 1    
    68   35   36 1    
    69   35   37 1    
    70   35   97 1    
    71   36   98 1    
    72   36   99 1    
    73   36  100 1    
    74   37   38 am   BACKBONE|DICT|INTERRES
    75   37  101 1    
    76   38   39 2    
    77   38   40 1    
    78   40   41 1    
    79   40   42 1    
    80   40  102 1    
    81   41  103 1    
    82   41  104 1    
    83   41  105 1    
    84   42   43 am   BACKBONE|DICT|INTERRES
    85   42  106 1    
    86   43   44 2    
    87   43   45 1    
    88   45   46 1    
    89   45   49 1    
    90   45  107 1    
    91   46   47 1    
    92   46  108 1    
    93   46  109 1    
    94   47   48 1    
    95   48  110 1    
    96   48  111 1    
    97   49   50 am   BACKBONE|DICT|INTERRES
    98   49  112 1    
    99   50   51 2    
   100   50   52 1    
   101   52   53 1    
   102   52   54 1    
   103   52  113 1    
   104   53  114 1    
   105   53  115 1    
   106   53  116 1    
   107   54   55 am   BACKBONE|DICT|INTERRES
   108   54  117 1    
   109   55   56 2    
   110   55   57 1    
   111   57   58 1    
   112   57   59 1    
   113   57  118 1    
   114   58  119 1    
   115   58  120 1    
   116   58  121 1    
   117   59   60 am   BACKBONE|DICT|INTERRES
   118   59  122 1    
   119   60   61 2    
   120   60   62 1    
   121   62   63 1    
   122   62   64 1    
   123   62  123 1    
   124   63  124 1    
   125   63  125 1    
   126   63  126 1    
   127   64   65 am   BACKBONE|DICT|INTERRES
   128   64  127 1    
   129   65   66 2    
@<TRIPOS>SUBSTRUCTURE
     1 UNK         1 GROUP             0       ****    0 ROOT    
