@<TRIPOS>MOLECULE
3R135
127   129    1
SMALL
USER_CHARGES


@<TRIPOS>ATOM
      1 CA        -78.8897   30.4352  -75.6188 C.3       0 UNK        -0.1998 
      2 C         -79.2718   29.3437  -74.6312 C.2       0 UNK         0.4909 
      3 O         -78.5148   28.3916  -74.4541 O.2       0 UNK        -0.5240 
      4 N         -80.4387   29.4729  -73.9855 N.am      1 UNK        -0.4739 
      5 CA        -80.9649   28.5209  -73.0019 C.3       1 UNK         0.0864 
      6 C6        -81.8830   29.2329  -71.9704 C.3       11 UNK        -0.0881 
      7 S7        -82.0475   28.2921  -70.4125 S.3       11 UNK        -0.2682 
      8 C8        -80.7959   29.0877  -69.3510 C.3       11 UNK         0.0289 
      9 C9        -79.3924   28.8984  -69.9064 C.ar      11 UNK        -0.0687 
     10 C10       -78.7563   27.6574  -69.7972 C.ar      11 UNK        -0.0823 
     11 C11       -77.4959   27.4546  -70.3664 C.ar      11 UNK        -0.0830 
     12 C12       -76.8668   28.5121  -71.0302 C.ar      11 UNK        -0.1021 
     13 C13       -77.4919   29.7565  -71.1479 C.ar      11 UNK        -0.0753 
     14 C14       -78.7505   29.9481  -70.5723 C.ar      11 UNK        -0.0933 
     15 C15       -76.8352   30.8639  -71.9593 C.3       11 UNK         0.0166 
     16 S16       -75.2140   31.3387  -71.2839 S.3       11 UNK        -0.2615 
     17 C17       -74.5645   32.3825  -72.6368 C.3       11 UNK        -0.0865 
     18 CA        -74.0824   31.5824  -73.8807 C.3       10 UNK         0.0862 
     19 C         -73.4902   32.5300  -74.9644 C.2       10 UNK         0.5551 
     20 N         -72.2448   32.3593  -75.3906 N.am      10 UNK        -0.7319 
     21 O         -74.1783   33.4354  -75.4290 O.2       10 UNK        -0.5018 
     22 N         -73.2211   30.4470  -73.5076 N.am      10 UNK        -0.4509 
     23 C         -73.0707   29.3340  -74.2335 C.2       10 UNK         0.4899 
     24 O         -73.5779   29.1619  -75.3432 O.2       10 UNK        -0.4839 
     25 CA        -72.2455   28.2199  -73.5720 C.3       9 UNK         0.0222 
     26 CB        -73.0211   27.6080  -72.3901 C.3       9 UNK        -0.1966 
     27 N         -71.9414   27.1530  -74.5254 N.am      9 UNK        -0.4218 
     28 C         -70.8176   27.0566  -75.2445 C.2       9 UNK         0.5020 
     29 O         -69.8976   27.8739  -75.1801 O.2       9 UNK        -0.5274 
     30 CA        -70.6617   25.8403  -76.1718 C.3       8 UNK         0.0270 
     31 CB        -70.0807   24.6413  -75.4004 C.3       8 UNK        -0.1976 
     32 N         -71.9035   25.4419  -76.8459 N.am      8 UNK        -0.4313 
     33 C         -71.9489   24.9283  -78.0856 C.2       8 UNK         0.5041 
     34 O         -70.9490   24.7569  -78.7857 O.2       8 UNK        -0.5577 
     35 CA        -73.3196   24.5132  -78.6617 C.3       7 UNK         0.0284 
     36 CB        -73.4993   22.9892  -78.5629 C.3       7 UNK        -0.1958 
     37 N         -74.4645   25.1604  -78.0238 N.am      7 UNK        -0.4454 
     38 C         -74.7235   26.4737  -78.0336 C.2       7 UNK         0.5089 
     39 O         -74.0878   27.2900  -78.7010 O.2       7 UNK        -0.5125 
     40 CA        -75.8667   26.9653  -77.1268 C.3       6 UNK         0.0408 
     41 CB        -77.1179   27.2729  -77.9634 C.3       6 UNK        -0.1791 
     42 N         -76.2396   26.0586  -76.0333 N.am      6 UNK        -0.4762 
     43 C         -75.4347   25.5784  -75.0731 C.2       6 UNK         0.5007 
     44 O         -74.2122   25.7222  -75.0598 O.2       6 UNK        -0.5032 
     45 CA        -76.1098   24.7694  -73.9551 C.3       5 UNK         0.0783 
     46 C46       -76.9887   25.6921  -73.0797 C.3       11 UNK        -0.0857 
     47 S47       -77.5037   24.9198  -71.5122 S.3       11 UNK        -0.2512 
     48 C48       -76.8253   26.0884  -70.2849 C.3       11 UNK         0.0225 
     49 N         -76.8666   23.6659  -74.5443 N.am      5 UNK        -0.4615 
     50 C         -76.3233   22.5175  -74.9680 C.2       4 UNK         0.5053 
     51 O         -75.1384   22.2228  -74.8126 O.2       4 UNK        -0.5105 
     52 CA        -77.2514   21.5307  -75.6994 C.3       4 UNK         0.0263 
     53 CB        -77.8551   20.5260  -74.7050 C.3       4 UNK        -0.1981 
     54 N         -78.3324   22.1898  -76.4370 N.am      4 UNK        -0.4224 
     55 C         -78.1600   22.9603  -77.5213 C.2       3 UNK         0.4895 
     56 O         -77.0691   23.1632  -78.0549 O.2       3 UNK        -0.5091 
     57 CA        -79.4171   23.6561  -78.0779 C.3       3 UNK         0.0250 
     58 CB        -80.1312   22.7472  -79.0910 C.3       3 UNK        -0.1996 
     59 N         -80.3715   24.0881  -77.0457 N.am      3 UNK        -0.4254 
     60 C         -80.0780   24.9369  -76.0511 C.2       2 UNK         0.5004 
     61 O         -78.9561   25.4147  -75.8764 O.2       2 UNK        -0.5226 
     62 CA        -81.1941   25.2681  -75.0566 C.3       2 UNK         0.0269 
     63 CB        -81.4116   24.1041  -74.0718 C.3       2 UNK        -0.1926 
     64 N         -80.8076   26.4669  -74.3176 N.am      2 UNK        -0.4687 
     65 C         -81.6338   27.3241  -73.7131 C.2       1 UNK         0.5165 
     66 O         -82.8614   27.2115  -73.7348 O.2       1 UNK        -0.5079 
     67 H67       -77.9112   30.8424  -75.3656 H         1 UNK         0.0900 
     68 H68       -79.6084   31.2544  -75.6203 H         1 UNK         0.0900 
     69 H69       -78.8368   30.0254  -76.6269 H         1 UNK         0.0900 
     70 H70       -81.0385   30.2572  -74.1988 H         1 UNK         0.2959 
     71 H71       -80.1120   28.1128  -72.4546 H         1 UNK         0.1079 
     72 H72       -81.4818   30.2177  -71.7273 H         1 UNK         0.0837 
     73 H73       -82.8762   29.4229  -72.3814 H         1 UNK         0.0837 
     74 H74       -80.8521   28.6552  -68.3510 H         1 UNK         0.0685 
     75 H75       -81.0324   30.1472  -69.2400 H         1 UNK         0.0685 
     76 H76       -79.2578   26.8395  -69.2978 H         1 UNK         0.1434 
     77 H77       -75.8951   28.3670  -71.4806 H         1 UNK         0.1329 
     78 H78       -79.2476   30.9029  -70.6744 H         1 UNK         0.1335 
     79 H79       -77.4741   31.7469  -72.0091 H         1 UNK         0.0680 
     80 H80       -76.7171   30.5057  -72.9821 H         1 UNK         0.0680 
     81 H81       -75.3342   33.1032  -72.9205 H         1 UNK         0.1032 
     82 H82       -73.7409   32.9719  -72.2296 H         1 UNK         0.1032 
     83 H83       -74.9738   31.1583  -74.3459 H         1 UNK         0.0461 
     84 H84       -71.6801   31.6110  -75.0221 H         1 UNK         0.3453 
     85 H85       -71.8723   32.9765  -76.0949 H         1 UNK         0.3453 
     86 H86       -72.7744   30.5126  -72.6047 H         1 UNK         0.2984 
     87 H87       -71.3190   28.6548  -73.1913 H         1 UNK         0.0554 
     88 H88       -72.4563   26.8025  -71.9206 H         1 UNK         0.0847 
     89 H89       -73.9819   27.2010  -72.7057 H         1 UNK         0.0847 
     90 H90       -73.2215   28.3510  -71.6171 H         1 UNK         0.0847 
     91 H91       -72.7042   26.4985  -74.6902 H         1 UNK         0.3141 
     92 H92       -69.9314   26.1386  -76.9274 H         1 UNK         0.0743 
     93 H93       -69.1623   24.9170  -74.8801 H         1 UNK         0.0784 
     94 H94       -69.8362   23.8185  -76.0725 H         1 UNK         0.0784 
     95 H95       -70.7817   24.2669  -74.6534 H         1 UNK         0.0784 
     96 H96       -72.7743   25.5612  -76.3352 H         1 UNK         0.3213 
     97 H97       -73.3264   24.7940  -79.7169 H         1 UNK         0.0855 
     98 H98       -73.5331   22.6543  -77.5250 H         1 UNK         0.0814 
     99 H99       -72.6757   22.4647  -79.0495 H         1 UNK         0.0814 
    100 H100      -74.4202   22.6657  -79.0490 H         1 UNK         0.0814 
    101 H101      -75.0841   24.5674  -77.4875 H         1 UNK         0.3105 
    102 H102      -75.5333   27.8957  -76.6648 H         1 UNK         0.0547 
    103 H103      -77.9141   27.6898  -77.3462 H         1 UNK         0.0837 
    104 H104      -76.8982   28.0001  -78.7460 H         1 UNK         0.0837 
    105 H105      -77.5040   26.3758  -78.4473 H         1 UNK         0.0837 
    106 H106      -77.2372   25.8574  -75.9562 H         1 UNK         0.3020 
    107 H107      -75.3140   24.3602  -73.3277 H         1 UNK         0.1245 
    108 H108      -77.8897   25.9966  -73.6097 H         1 UNK         0.0781 
    109 H109      -76.4523   26.6148  -72.8655 H         1 UNK         0.0781 
    110 H110      -76.9669   25.6730  -69.2861 H         1 UNK         0.0836 
    111 H111      -75.7469   26.1779  -70.4260 H         1 UNK         0.0836 
    112 H112      -77.8327   23.8624  -74.7665 H         1 UNK         0.3022 
    113 H113      -76.6420   20.9786  -76.4184 H         1 UNK         0.0747 
    114 H114      -78.4532   19.7713  -75.2161 H         1 UNK         0.0793 
    115 H115      -77.0709   19.9997  -74.1588 H         1 UNK         0.0793 
    116 H116      -78.4909   21.0183  -73.9678 H         1 UNK         0.0793 
    117 H117      -79.2680   22.0772  -76.0754 H         1 UNK         0.3047 
    118 H118      -79.0824   24.5513  -78.6052 H         1 UNK         0.0822 
    119 H119      -80.9595   23.2652  -79.5749 H         1 UNK         0.0807 
    120 H120      -80.5264   21.8464  -78.6198 H         1 UNK         0.0807 
    121 H121      -79.4471   22.4292  -79.8793 H         1 UNK         0.0807 
    122 H122      -81.3117   23.7257  -77.1189 H         1 UNK         0.2946 
    123 H123      -82.1113   25.4648  -75.6164 H         1 UNK         0.1144 
    124 H124      -82.2083   24.3287  -73.3624 H         1 UNK         0.0793 
    125 H125      -80.5081   23.8884  -73.4992 H         1 UNK         0.0793 
    126 H126      -81.6965   23.1899  -74.5939 H         1 UNK         0.0793 
    127 H127      -79.8180   26.6976  -74.3707 H         1 UNK         0.2896 
@<TRIPOS>BOND
     1    1    2 1    
     2    1   67 1    
     3    1   68 1    
     4    1   69 1    
     5    2    3 2    
     6    2    4 am   BACKBONE|DICT|INTERRES
     7    4    5 1    
     8    4   70 1    
     9    5    6 1    
    10    5   65 1    
    11    5   71 1    
    12    6    7 1    
    13    6   72 1    
    14    6   73 1    
    15    7    8 1    
    16    8    9 1    
    17    8   74 1    
    18    8   75 1    
    19    9   10 ar   
    20    9   14 ar   
    21   10   11 ar   
    22   10   76 1    
    23   11   12 ar   
    24   11   48 1    
    25   12   13 ar   
    26   12   77 1    
    27   13   14 ar   
    28   13   15 1    
    29   14   78 1    
    30   15   16 1    
    31   15   79 1    
    32   15   80 1    
    33   16   17 1    
    34   17   18 1    
    35   17   81 1    
    36   17   82 1    
    37   18   19 1    
    38   18   22 1    
    39   18   83 1    
    40   19   20 am   BACKBONE|DICT|INTERRES
    41   19   21 2    
    42   20   84 1    
    43   20   85 1    
    44   22   23 am   BACKBONE|DICT|INTERRES
    45   22   86 1    
    46   23   24 2    
    47   23   25 1    
    48   25   26 1    
    49   25   27 1    
    50   25   87 1    
    51   26   88 1    
    52   26   89 1    
    53   26   90 1    
    54   27   28 am   BACKBONE|DICT|INTERRES
    55   27   91 1    
    56   28   29 2    
    57   28   30 1    
    58   30   31 1    
    59   30   32 1    
    60   30   92 1    
    61   31   93 1    
    62   31   94 1    
    63   31   95 1    
    64   32   33 am   BACKBONE|DICT|INTERRES
    65   32   96 1    
    66   33   34 2    
    67   33   35 1    
    68   35   36 1    
    69   35   37 1    
    70   35   97 1    
    71   36   98 1    
    72   36   99 1    
    73   36  100 1    
    74   37   38 am   BACKBONE|DICT|INTERRES
    75   37  101 1    
    76   38   39 2    
    77   38   40 1    
    78   40   41 1    
    79   40   42 1    
    80   40  102 1    
    81   41  103 1    
    82   41  104 1    
    83   41  105 1    
    84   42   43 am   BACKBONE|DICT|INTERRES
    85   42  106 1    
    86   43   44 2    
    87   43   45 1    
    88   45   46 1    
    89   45   49 1    
    90   45  107 1    
    91   46   47 1    
    92   46  108 1    
    93   46  109 1    
    94   47   48 1    
    95   48  110 1    
    96   48  111 1    
    97   49   50 am   BACKBONE|DICT|INTERRES
    98   49  112 1    
    99   50   51 2    
   100   50   52 1    
   101   52   53 1    
   102   52   54 1    
   103   52  113 1    
   104   53  114 1    
   105   53  115 1    
   106   53  116 1    
   107   54   55 am   BACKBONE|DICT|INTERRES
   108   54  117 1    
   109   55   56 2    
   110   55   57 1    
   111   57   58 1    
   112   57   59 1    
   113   57  118 1    
   114   58  119 1    
   115   58  120 1    
   116   58  121 1    
   117   59   60 am   BACKBONE|DICT|INTERRES
   118   59  122 1    
   119   60   61 2    
   120   60   62 1    
   121   62   63 1    
   122   62   64 1    
   123   62  123 1    
   124   63  124 1    
   125   63  125 1    
   126   63  126 1    
   127   64   65 am   BACKBONE|DICT|INTERRES
   128   64  127 1    
   129   65   66 2    
@<TRIPOS>SUBSTRUCTURE
     1 UNK         1 GROUP             0       ****    0 ROOT    
