@<TRIPOS>MOLECULE
3R135
127   129    1
SMALL
USER_CHARGES


@<TRIPOS>ATOM
      1 CA        -85.2634   28.2575  -71.7190 C.3       0 UNK        -0.1998 
      2 C         -84.7541   27.9841  -73.1261 C.2       0 UNK         0.4909 
      3 O         -85.3658   27.2057  -73.8584 O.2       0 UNK        -0.5240 
      4 N         -83.6411   28.6225  -73.5099 N.am      1 UNK        -0.4739 
      5 CA        -82.9717   28.4587  -74.8073 C.3       1 UNK         0.0864 
      6 C6        -81.9542   29.5953  -75.0907 C.3       11 UNK        -0.0881 
      7 S7        -80.8506   29.9769  -73.6850 S.3       11 UNK        -0.2682 
      8 C8        -79.2928   29.2374  -74.2491 C.3       11 UNK         0.0289 
      9 C9        -78.2670   29.2328  -73.1305 C.ar      11 UNK        -0.0687 
     10 C10       -78.0563   28.0720  -72.3843 C.ar      11 UNK        -0.0823 
     11 C11       -77.1317   28.0580  -71.3367 C.ar      11 UNK        -0.0830 
     12 C12       -76.4207   29.2238  -71.0343 C.ar      11 UNK        -0.1021 
     13 C13       -76.6192   30.3917  -71.7773 C.ar      11 UNK        -0.0753 
     14 C14       -77.5434   30.3888  -72.8268 C.ar      11 UNK        -0.0933 
     15 C15       -75.8675   31.6687  -71.4312 C.3       11 UNK         0.0166 
     16 S16       -74.6191   32.0746  -72.6936 S.3       11 UNK        -0.2615 
     17 C17       -73.0365   31.8112  -71.8121 C.3       11 UNK        -0.0865 
     18 CA        -72.3319   30.4648  -72.1342 C.3       10 UNK         0.0862 
     19 C         -72.8875   29.2809  -71.2884 C.2       10 UNK         0.5551 
     20 N         -73.3459   28.1876  -71.8835 N.am      10 UNK        -0.7319 
     21 O         -72.8887   29.3545  -70.0620 O.2       10 UNK        -0.5018 
     22 N         -72.2666   30.2243  -73.5833 N.am      10 UNK        -0.4509 
     23 C         -71.4071   29.4025  -74.1910 C.2       10 UNK         0.4899 
     24 O         -70.4836   28.8268  -73.6135 O.2       10 UNK        -0.4839 
     25 CA        -71.6328   29.2156  -75.6981 C.3       9 UNK         0.0222 
     26 CB        -70.6472   30.0527  -76.5372 C.3       9 UNK        -0.1966 
     27 N         -71.6377   27.8001  -76.0741 N.am      9 UNK        -0.4218 
     28 C         -70.6142   26.9391  -76.1856 C.2       9 UNK         0.5020 
     29 O         -69.4248   27.2317  -76.0533 O.2       9 UNK        -0.5274 
     30 CA        -70.9840   25.4824  -76.5223 C.3       8 UNK         0.0270 
     31 CB        -71.0410   24.6379  -75.2387 C.3       8 UNK        -0.1976 
     32 N         -72.2586   25.3564  -77.2351 N.am      8 UNK        -0.4313 
     33 C         -72.4903   25.7957  -78.4801 C.2       8 UNK         0.5041 
     34 O         -71.6270   26.2886  -79.2070 O.2       8 UNK        -0.5577 
     35 CA        -73.9351   25.6898  -78.9919 C.3       7 UNK         0.0284 
     36 CB        -74.2126   24.2869  -79.5557 C.3       7 UNK        -0.1958 
     37 N         -74.9265   26.0187  -77.9626 N.am      7 UNK        -0.4454 
     38 C         -75.1641   27.2548  -77.4991 C.2       7 UNK         0.5089 
     39 O         -74.5509   28.2566  -77.8660 O.2       7 UNK        -0.5125 
     40 CA        -76.2849   27.3955  -76.4526 C.3       6 UNK         0.0408 
     41 CB        -77.6464   27.4317  -77.1667 C.3       6 UNK        -0.1791 
     42 N         -76.2845   26.3229  -75.4531 N.am      6 UNK        -0.4762 
     43 C         -75.2802   26.0756  -74.5950 C.2       6 UNK         0.5007 
     44 O         -74.2636   26.7689  -74.5124 O.2       6 UNK        -0.5032 
     45 CA        -75.3925   24.7772  -73.7641 C.3       5 UNK         0.0783 
     46 C46       -76.3297   24.9215  -72.5406 C.3       11 UNK        -0.0857 
     47 S47       -75.5506   25.7799  -71.1353 S.3       11 UNK        -0.2512 
     48 C48       -76.9238   26.7983  -70.5083 C.3       11 UNK         0.0225 
     49 N         -75.8146   23.6460  -74.5937 N.am      5 UNK        -0.4615 
     50 C         -75.1650   23.1513  -75.6521 C.2       4 UNK         0.5053 
     51 O         -74.0720   23.5642  -76.0332 O.2       4 UNK        -0.5105 
     52 CA        -75.8822   22.0627  -76.4696 C.3       4 UNK         0.0263 
     53 CB        -75.7504   20.6781  -75.8056 C.3       4 UNK        -0.1981 
     54 N         -77.2791   22.4027  -76.7881 N.am      4 UNK        -0.4224 
     55 C         -78.3215   22.5058  -75.9513 C.2       3 UNK         0.4895 
     56 O         -78.2734   22.2283  -74.7499 O.2       3 UNK        -0.5091 
     57 CA        -79.6282   23.0288  -76.5693 C.3       3 UNK         0.0250 
     58 CB        -80.3740   21.8941  -77.2912 C.3       3 UNK        -0.1996 
     59 N         -80.5195   23.6202  -75.5697 N.am      3 UNK        -0.4254 
     60 C         -80.2687   24.7241  -74.8516 C.2       2 UNK         0.5004 
     61 O         -79.2488   25.4119  -74.9597 O.2       2 UNK        -0.5226 
     62 CA        -81.3419   25.0951  -73.8111 C.3       2 UNK         0.0269 
     63 CB        -80.8333   24.8193  -72.3864 C.3       2 UNK        -0.1926 
     64 N         -81.8141   26.4806  -73.9032 N.am      2 UNK        -0.4687 
     65 C         -82.3579   27.0528  -74.9897 C.2       1 UNK         0.5165 
     66 O         -82.4440   26.5015  -76.0882 O.2       1 UNK        -0.5079 
     67 H67       -85.2911   27.3323  -71.1440 H         1 UNK         0.0900 
     68 H68       -84.6309   28.9683  -71.1874 H         1 UNK         0.0900 
     69 H69       -86.2731   28.6654  -71.7580 H         1 UNK         0.0900 
     70 H70       -83.1788   29.2546  -72.8703 H         1 UNK         0.2959 
     71 H71       -83.7497   28.5367  -75.5707 H         1 UNK         0.1079 
     72 H72       -82.5045   30.5102  -75.3161 H         1 UNK         0.0837 
     73 H73       -81.3681   29.3873  -75.9885 H         1 UNK         0.0837 
     74 H74       -79.4873   28.2168  -74.5791 H         1 UNK         0.0685 
     75 H75       -78.9103   29.7858  -75.1112 H         1 UNK         0.0685 
     76 H76       -78.6239   27.1847  -72.6207 H         1 UNK         0.1434 
     77 H77       -75.7121   29.2203  -70.2174 H         1 UNK         0.1329 
     78 H78       -77.7093   31.2917  -73.3986 H         1 UNK         0.1335 
     79 H79       -76.5789   32.4933  -71.3681 H         1 UNK         0.0680 
     80 H80       -75.4095   31.5912  -70.4444 H         1 UNK         0.0680 
     81 H81       -72.3753   32.6253  -72.1128 H         1 UNK         0.1032 
     82 H82       -73.1672   31.9469  -70.7371 H         1 UNK         0.1032 
     83 H83       -71.3003   30.5753  -71.7940 H         1 UNK         0.0461 
     84 H84       -73.3795   28.1111  -72.8896 H         1 UNK         0.3453 
     85 H85       -73.7243   27.4423  -71.3206 H         1 UNK         0.3453 
     86 H86       -73.0062   30.6554  -74.1196 H         1 UNK         0.2984 
     87 H87       -72.6384   29.5675  -75.9355 H         1 UNK         0.0554 
     88 H88       -70.7871   31.1175  -76.3478 H         1 UNK         0.0847 
     89 H89       -70.7960   29.8895  -77.6046 H         1 UNK         0.0847 
     90 H90       -69.6083   29.8206  -76.3017 H         1 UNK         0.0847 
     91 H91       -72.5627   27.4000  -76.1654 H         1 UNK         0.3141 
     92 H92       -70.1978   25.0812  -77.1653 H         1 UNK         0.0743 
     93 H93       -70.0983   24.6916  -74.6924 H         1 UNK         0.0784 
     94 H94       -71.8288   24.9821  -74.5668 H         1 UNK         0.0784 
     95 H95       -71.2276   23.5873  -75.4624 H         1 UNK         0.0784 
     96 H96       -73.0087   24.8749  -76.7409 H         1 UNK         0.3213 
     97 H97       -74.0492   26.4082  -79.8069 H         1 UNK         0.0855 
     98 H98       -74.0765   23.5114  -78.8023 H         1 UNK         0.0814 
     99 H99       -73.5314   24.0600  -80.3770 H         1 UNK         0.0814 
    100 H100      -75.2268   24.2065  -79.9470 H         1 UNK         0.0814 
    101 H101      -75.4570   25.2546  -77.5738 H         1 UNK         0.3105 
    102 H102      -76.1435   28.3414  -75.9253 H         1 UNK         0.0547 
    103 H103      -78.4666   27.5668  -76.4664 H         1 UNK         0.0837 
    104 H104      -77.6916   28.2566  -77.8790 H         1 UNK         0.0837 
    105 H105      -77.8397   26.5119  -77.7199 H         1 UNK         0.0837 
    106 H106      -77.1159   25.7437  -75.4083 H         1 UNK         0.3020 
    107 H107      -74.3878   24.5397  -73.4066 H         1 UNK         0.1245 
    108 H108      -76.6089   23.9339  -72.1692 H         1 UNK         0.0781 
    109 H109      -77.2688   25.3961  -72.8234 H         1 UNK         0.0781 
    110 H110      -76.7071   27.0745  -69.4753 H         1 UNK         0.0836 
    111 H111      -77.8384   26.2041  -70.4732 H         1 UNK         0.0836 
    112 H112      -76.7211   23.2363  -74.3824 H         1 UNK         0.3022 
    113 H113      -75.3696   22.0036  -77.4306 H         1 UNK         0.0747 
    114 H114      -76.2308   19.9045  -76.4046 H         1 UNK         0.0793 
    115 H115      -74.7010   20.4002  -75.6988 H         1 UNK         0.0793 
    116 H116      -76.1912   20.6521  -74.8089 H         1 UNK         0.0793 
    117 H117      -77.4401   22.6453  -77.7563 H         1 UNK         0.3047 
    118 H118      -79.3805   23.8085  -77.2930 H         1 UNK         0.0822 
    119 H119      -79.7573   21.4510  -78.0744 H         1 UNK         0.0807 
    120 H120      -81.2845   22.2575  -77.7683 H         1 UNK         0.0807 
    121 H121      -80.6511   21.0930  -76.6044 H         1 UNK         0.0807 
    122 H122      -81.3696   23.1092  -75.3831 H         1 UNK         0.2946 
    123 H123      -82.2155   24.4615  -73.9793 H         1 UNK         0.1144 
    124 H124      -81.6162   24.9815  -71.6453 H         1 UNK         0.0793 
    125 H125      -79.9875   25.4538  -72.1259 H         1 UNK         0.0793 
    126 H126      -80.5027   23.7845  -72.2850 H         1 UNK         0.0793 
    127 H127      -81.7834   27.0269  -73.0550 H         1 UNK         0.2896 
@<TRIPOS>BOND
     1    1    2 1    
     2    1   67 1    
     3    1   68 1    
     4    1   69 1    
     5    2    3 2    
     6    2    4 am   BACKBONE|DICT|INTERRES
     7    4    5 1    
     8    4   70 1    
     9    5    6 1    
    10    5   65 1    
    11    5   71 1    
    12    6    7 1    
    13    6   72 1    
    14    6   73 1    
    15    7    8 1    
    16    8    9 1    
    17    8   74 1    
    18    8   75 1    
    19    9   10 ar   
    20    9   14 ar   
    21   10   11 ar   
    22   10   76 1    
    23   11   12 ar   
    24   11   48 1    
    25   12   13 ar   
    26   12   77 1    
    27   13   14 ar   
    28   13   15 1    
    29   14   78 1    
    30   15   16 1    
    31   15   79 1    
    32   15   80 1    
    33   16   17 1    
    34   17   18 1    
    35   17   81 1    
    36   17   82 1    
    37   18   19 1    
    38   18   22 1    
    39   18   83 1    
    40   19   20 am   BACKBONE|DICT|INTERRES
    41   19   21 2    
    42   20   84 1    
    43   20   85 1    
    44   22   23 am   BACKBONE|DICT|INTERRES
    45   22   86 1    
    46   23   24 2    
    47   23   25 1    
    48   25   26 1    
    49   25   27 1    
    50   25   87 1    
    51   26   88 1    
    52   26   89 1    
    53   26   90 1    
    54   27   28 am   BACKBONE|DICT|INTERRES
    55   27   91 1    
    56   28   29 2    
    57   28   30 1    
    58   30   31 1    
    59   30   32 1    
    60   30   92 1    
    61   31   93 1    
    62   31   94 1    
    63   31   95 1    
    64   32   33 am   BACKBONE|DICT|INTERRES
    65   32   96 1    
    66   33   34 2    
    67   33   35 1    
    68   35   36 1    
    69   35   37 1    
    70   35   97 1    
    71   36   98 1    
    72   36   99 1    
    73   36  100 1    
    74   37   38 am   BACKBONE|DICT|INTERRES
    75   37  101 1    
    76   38   39 2    
    77   38   40 1    
    78   40   41 1    
    79   40   42 1    
    80   40  102 1    
    81   41  103 1    
    82   41  104 1    
    83   41  105 1    
    84   42   43 am   BACKBONE|DICT|INTERRES
    85   42  106 1    
    86   43   44 2    
    87   43   45 1    
    88   45   46 1    
    89   45   49 1    
    90   45  107 1    
    91   46   47 1    
    92   46  108 1    
    93   46  109 1    
    94   47   48 1    
    95   48  110 1    
    96   48  111 1    
    97   49   50 am   BACKBONE|DICT|INTERRES
    98   49  112 1    
    99   50   51 2    
   100   50   52 1    
   101   52   53 1    
   102   52   54 1    
   103   52  113 1    
   104   53  114 1    
   105   53  115 1    
   106   53  116 1    
   107   54   55 am   BACKBONE|DICT|INTERRES
   108   54  117 1    
   109   55   56 2    
   110   55   57 1    
   111   57   58 1    
   112   57   59 1    
   113   57  118 1    
   114   58  119 1    
   115   58  120 1    
   116   58  121 1    
   117   59   60 am   BACKBONE|DICT|INTERRES
   118   59  122 1    
   119   60   61 2    
   120   60   62 1    
   121   62   63 1    
   122   62   64 1    
   123   62  123 1    
   124   63  124 1    
   125   63  125 1    
   126   63  126 1    
   127   64   65 am   BACKBONE|DICT|INTERRES
   128   64  127 1    
   129   65   66 2    
@<TRIPOS>SUBSTRUCTURE
     1 UNK         1 GROUP             0       ****    0 ROOT    
