@<TRIPOS>MOLECULE
3R135
127   129    1
SMALL
USER_CHARGES


@<TRIPOS>ATOM
      1 CA        -79.2553   30.7972  -75.6190 C.3       0 UNK        -0.1998 
      2 C         -79.4301   29.5064  -74.8333 C.2       0 UNK         0.4909 
      3 O         -78.6074   28.6014  -74.9588 O.2       0 UNK        -0.5240 
      4 N         -80.4923   29.4192  -74.0225 N.am      1 UNK        -0.4739 
      5 CA        -80.8167   28.2488  -73.1998 C.3       1 UNK         0.0864 
      6 C6        -81.9065   28.5517  -72.1360 C.3       11 UNK        -0.0881 
      7 S7        -81.6191   30.0746  -71.1688 S.3       11 UNK        -0.2682 
      8 C8        -80.6539   29.4629  -69.7502 C.3       11 UNK         0.0289 
      9 C9        -79.2280   29.1047  -70.1438 C.ar      11 UNK        -0.0687 
     10 C10       -78.7752   27.7846  -70.0431 C.ar      11 UNK        -0.0823 
     11 C11       -77.4693   27.4542  -70.4185 C.ar      11 UNK        -0.0830 
     12 C12       -76.6096   28.4596  -70.8697 C.ar      11 UNK        -0.1021 
     13 C13       -77.0568   29.7767  -70.9987 C.ar      11 UNK        -0.0753 
     14 C14       -78.3633   30.0964  -70.6212 C.ar      11 UNK        -0.0933 
     15 C15       -76.1362   30.8331  -71.5910 C.3       11 UNK         0.0166 
     16 S16       -75.9328   30.5439  -73.3744 S.3       11 UNK        -0.2615 
     17 C17       -74.7818   31.8652  -73.8970 C.3       11 UNK        -0.0865 
     18 CA        -73.3188   31.7789  -73.3506 C.3       10 UNK         0.0862 
     19 C         -73.0736   32.6236  -72.0653 C.2       10 UNK         0.5551 
     20 N         -72.1995   32.2071  -71.1552 N.am      10 UNK        -0.7319 
     21 O         -73.6684   33.6839  -71.8898 O.2       10 UNK        -0.5018 
     22 N         -72.8078   30.4040  -73.2382 N.am      10 UNK        -0.4509 
     23 C         -72.5718   29.5582  -74.2450 C.2       10 UNK         0.4899 
     24 O         -72.6811   29.8549  -75.4371 O.2       10 UNK        -0.4839 
     25 CA        -72.1663   28.1359  -73.8142 C.3       9 UNK         0.0222 
     26 CB        -73.1907   27.5367  -72.8287 C.3       9 UNK        -0.1966 
     27 N         -72.0301   27.2246  -74.9523 N.am      9 UNK        -0.4218 
     28 C         -70.9248   27.0866  -75.6938 C.2       9 UNK         0.5020 
     29 O         -69.9059   27.7572  -75.5151 O.2       9 UNK        -0.5274 
     30 CA        -70.8994   26.0031  -76.7866 C.3       8 UNK         0.0270 
     31 CB        -70.1674   24.7483  -76.2697 C.3       8 UNK        -0.1976 
     32 N         -72.2101   25.6191  -77.3343 N.am      8 UNK        -0.4313 
     33 C         -72.3646   25.1246  -78.5747 C.2       8 UNK         0.5041 
     34 O         -71.4379   25.0200  -79.3809 O.2       8 UNK        -0.5577 
     35 CA        -73.7585   24.6302  -79.0137 C.3       7 UNK         0.0284 
     36 CB        -73.8505   23.1027  -78.8614 C.3       7 UNK        -0.1958 
     37 N         -74.8785   25.2391  -78.3012 N.am      7 UNK        -0.4454 
     38 C         -75.2097   26.5355  -78.3306 C.2       7 UNK         0.5089 
     39 O         -74.6524   27.3698  -79.0443 O.2       7 UNK        -0.5125 
     40 CA        -76.3401   26.9838  -77.3861 C.3       6 UNK         0.0408 
     41 CB        -77.6631   27.0973  -78.1594 C.3       6 UNK        -0.1791 
     42 N         -76.5519   26.1287  -76.2113 N.am      6 UNK        -0.4762 
     43 C         -75.6331   25.7777  -75.2990 C.2       6 UNK         0.5007 
     44 O         -74.4304   26.0163  -75.4054 O.2       6 UNK        -0.5032 
     45 CA        -76.1438   24.9753  -74.0926 C.3       5 UNK         0.0783 
     46 C46       -77.0599   25.8575  -73.2085 C.3       11 UNK        -0.0857 
     47 S47       -77.6924   25.0075  -71.7226 S.3       11 UNK        -0.2512 
     48 C48       -76.9909   26.0087  -70.3677 C.3       11 UNK         0.0225 
     49 N         -76.7957   23.7587  -74.5774 N.am      5 UNK        -0.4615 
     50 C         -76.1390   22.6677  -74.9965 C.2       4 UNK         0.5053 
     51 O         -74.9185   22.5328  -74.9131 O.2       4 UNK        -0.5105 
     52 CA        -76.9714   21.5345  -75.6246 C.3       4 UNK         0.0263 
     53 CB        -77.3065   20.4696  -74.5678 C.3       4 UNK        -0.1981 
     54 N         -78.2121   22.0000  -76.2475 N.am      4 UNK        -0.4224 
     55 C         -78.2819   22.7577  -77.3522 C.2       3 UNK         0.4895 
     56 O         -77.3035   23.0945  -78.0192 O.2       3 UNK        -0.5091 
     57 CA        -79.6824   23.2723  -77.7398 C.3       3 UNK         0.0250 
     58 CB        -80.3998   22.2586  -78.6452 C.3       3 UNK        -0.1996 
     59 N         -80.5310   23.5878  -76.5802 N.am      3 UNK        -0.4254 
     60 C         -80.2119   24.4928  -75.6441 C.2       2 UNK         0.5004 
     61 O         -79.1769   25.1588  -75.6817 O.2       2 UNK        -0.5226 
     62 CA        -81.1510   24.6101  -74.4313 C.3       2 UNK         0.0269 
     63 CB        -80.9589   23.4077  -73.4907 C.3       2 UNK        -0.1926 
     64 N         -80.8960   25.8386  -73.6728 N.am      2 UNK        -0.4687 
     65 C         -81.2586   27.0612  -74.0814 C.2       1 UNK         0.5165 
     66 O         -81.9555   27.2660  -75.0800 O.2       1 UNK        -0.5079 
     67 H67       -78.3040   31.2631  -75.3631 H         1 UNK         0.0900 
     68 H68       -80.0508   31.5124  -75.4114 H         1 UNK         0.0900 
     69 H69       -79.2553   30.5872  -76.6881 H         1 UNK         0.0900 
     70 H70       -81.1423   30.1887  -73.9575 H         1 UNK         0.2959 
     71 H71       -79.8983   27.9607  -72.6838 H         1 UNK         0.1079 
     72 H72       -82.8807   28.6652  -72.6164 H         1 UNK         0.0837 
     73 H73       -82.0108   27.7096  -71.4492 H         1 UNK         0.0837 
     74 H74       -81.1671   28.6127  -69.2983 H         1 UNK         0.0685 
     75 H75       -80.6218   30.2418  -68.9872 H         1 UNK         0.0685 
     76 H76       -79.4418   27.0086  -69.6920 H         1 UNK         0.1434 
     77 H77       -75.6011   28.2121  -71.1686 H         1 UNK         0.1329 
     78 H78       -78.7198   31.1124  -70.7219 H         1 UNK         0.1335 
     79 H79       -75.1669   30.7850  -71.0940 H         1 UNK         0.0680 
     80 H80       -76.5303   31.8370  -71.4258 H         1 UNK         0.0680 
     81 H81       -74.7375   31.8049  -74.9853 H         1 UNK         0.1032 
     82 H82       -75.2405   32.8350  -73.6974 H         1 UNK         0.1032 
     83 H83       -72.6845   32.2729  -74.0889 H         1 UNK         0.0461 
     84 H84       -71.6262   31.3939  -71.3067 H         1 UNK         0.3453 
     85 H85       -72.0529   32.7717  -70.3329 H         1 UNK         0.3453 
     86 H86       -72.7137   30.0662  -72.2923 H         1 UNK         0.2984 
     87 H87       -71.2044   28.2038  -73.3016 H         1 UNK         0.0554 
     88 H88       -72.9929   26.4819  -72.6364 H         1 UNK         0.0847 
     89 H89       -74.2085   27.6225  -73.2104 H         1 UNK         0.0847 
     90 H90       -73.1615   28.0434  -71.8640 H         1 UNK         0.0847 
     91 H91       -72.8680   26.6900  -75.1747 H         1 UNK         0.3141 
     92 H92       -70.3029   26.4312  -77.5954 H         1 UNK         0.0743 
     93 H93       -69.1952   25.0049  -75.8462 H         1 UNK         0.0784 
     94 H94       -69.9874   24.0317  -77.0711 H         1 UNK         0.0784 
     95 H95       -70.7410   24.2437  -75.4913 H         1 UNK         0.0784 
     96 H96       -73.0231   25.6971  -76.7301 H         1 UNK         0.3213 
     97 H97       -73.8701   24.8766  -80.0717 H         1 UNK         0.0855 
     98 H98       -73.7871   22.7980  -77.8156 H         1 UNK         0.0814 
     99 H99       -73.0405   22.6054  -79.3969 H         1 UNK         0.0814 
    100 H100      -74.7876   22.7190  -79.2656 H         1 UNK         0.0814 
    101 H101      -75.4383   24.6274  -77.7214 H         1 UNK         0.3105 
    102 H102      -76.0759   27.9746  -77.0116 H         1 UNK         0.0547 
    103 H103      -78.4601   27.4886  -77.5265 H         1 UNK         0.0837 
    104 H104      -77.5639   27.7717  -79.0109 H         1 UNK         0.0837 
    105 H105      -77.9857   26.1288  -78.5426 H         1 UNK         0.0837 
    106 H106      -77.5187   25.8576  -76.0320 H         1 UNK         0.3020 
    107 H107      -75.2747   24.6915  -73.4942 H         1 UNK         0.1245 
    108 H108      -77.9217   26.2229  -73.7662 H         1 UNK         0.0781 
    109 H109      -76.5153   26.7532  -72.9147 H         1 UNK         0.0781 
    110 H110      -77.2783   25.5649  -69.4135 H         1 UNK         0.0836 
    111 H111      -75.9017   25.9578  -70.4116 H         1 UNK         0.0836 
    112 H112      -77.7903   23.8326  -74.7422 H         1 UNK         0.3022 
    113 H113      -76.3591   21.0693  -76.4003 H         1 UNK         0.0747 
    114 H114      -77.8306   19.6219  -75.0097 H         1 UNK         0.0793 
    115 H115      -76.3982   20.0808  -74.1051 H         1 UNK         0.0793 
    116 H116      -77.9307   20.8740  -73.7698 H         1 UNK         0.0793 
    117 H117      -79.0730   21.7679  -75.7747 H         1 UNK         0.3047 
    118 H118      -79.5436   24.1958  -78.3055 H         1 UNK         0.0822 
    119 H119      -81.3508   22.6514  -79.0056 H         1 UNK         0.0807 
    120 H120      -80.5978   21.3198  -78.1266 H         1 UNK         0.0807 
    121 H121      -79.7953   22.0247  -79.5230 H         1 UNK         0.0807 
    122 H122      -81.3918   23.0666  -76.4900 H         1 UNK         0.2946 
    123 H123      -82.1824   24.6242  -74.7916 H         1 UNK         0.1144 
    124 H124      -81.6104   23.4790  -72.6194 H         1 UNK         0.0793 
    125 H125      -79.9310   23.3330  -73.1328 H         1 UNK         0.0793 
    126 H126      -81.1987   22.4692  -73.9917 H         1 UNK         0.0793 
    127 H127      -80.3005   25.7475  -72.8622 H         1 UNK         0.2896 
@<TRIPOS>BOND
     1    1    2 1    
     2    1   67 1    
     3    1   68 1    
     4    1   69 1    
     5    2    3 2    
     6    2    4 am   BACKBONE|DICT|INTERRES
     7    4    5 1    
     8    4   70 1    
     9    5    6 1    
    10    5   65 1    
    11    5   71 1    
    12    6    7 1    
    13    6   72 1    
    14    6   73 1    
    15    7    8 1    
    16    8    9 1    
    17    8   74 1    
    18    8   75 1    
    19    9   10 ar   
    20    9   14 ar   
    21   10   11 ar   
    22   10   76 1    
    23   11   12 ar   
    24   11   48 1    
    25   12   13 ar   
    26   12   77 1    
    27   13   14 ar   
    28   13   15 1    
    29   14   78 1    
    30   15   16 1    
    31   15   79 1    
    32   15   80 1    
    33   16   17 1    
    34   17   18 1    
    35   17   81 1    
    36   17   82 1    
    37   18   19 1    
    38   18   22 1    
    39   18   83 1    
    40   19   20 am   BACKBONE|DICT|INTERRES
    41   19   21 2    
    42   20   84 1    
    43   20   85 1    
    44   22   23 am   BACKBONE|DICT|INTERRES
    45   22   86 1    
    46   23   24 2    
    47   23   25 1    
    48   25   26 1    
    49   25   27 1    
    50   25   87 1    
    51   26   88 1    
    52   26   89 1    
    53   26   90 1    
    54   27   28 am   BACKBONE|DICT|INTERRES
    55   27   91 1    
    56   28   29 2    
    57   28   30 1    
    58   30   31 1    
    59   30   32 1    
    60   30   92 1    
    61   31   93 1    
    62   31   94 1    
    63   31   95 1    
    64   32   33 am   BACKBONE|DICT|INTERRES
    65   32   96 1    
    66   33   34 2    
    67   33   35 1    
    68   35   36 1    
    69   35   37 1    
    70   35   97 1    
    71   36   98 1    
    72   36   99 1    
    73   36  100 1    
    74   37   38 am   BACKBONE|DICT|INTERRES
    75   37  101 1    
    76   38   39 2    
    77   38   40 1    
    78   40   41 1    
    79   40   42 1    
    80   40  102 1    
    81   41  103 1    
    82   41  104 1    
    83   41  105 1    
    84   42   43 am   BACKBONE|DICT|INTERRES
    85   42  106 1    
    86   43   44 2    
    87   43   45 1    
    88   45   46 1    
    89   45   49 1    
    90   45  107 1    
    91   46   47 1    
    92   46  108 1    
    93   46  109 1    
    94   47   48 1    
    95   48  110 1    
    96   48  111 1    
    97   49   50 am   BACKBONE|DICT|INTERRES
    98   49  112 1    
    99   50   51 2    
   100   50   52 1    
   101   52   53 1    
   102   52   54 1    
   103   52  113 1    
   104   53  114 1    
   105   53  115 1    
   106   53  116 1    
   107   54   55 am   BACKBONE|DICT|INTERRES
   108   54  117 1    
   109   55   56 2    
   110   55   57 1    
   111   57   58 1    
   112   57   59 1    
   113   57  118 1    
   114   58  119 1    
   115   58  120 1    
   116   58  121 1    
   117   59   60 am   BACKBONE|DICT|INTERRES
   118   59  122 1    
   119   60   61 2    
   120   60   62 1    
   121   62   63 1    
   122   62   64 1    
   123   62  123 1    
   124   63  124 1    
   125   63  125 1    
   126   63  126 1    
   127   64   65 am   BACKBONE|DICT|INTERRES
   128   64  127 1    
   129   65   66 2    
@<TRIPOS>SUBSTRUCTURE
     1 UNK         1 GROUP             0       ****    0 ROOT    
