@<TRIPOS>MOLECULE
3R135
127   129    1
SMALL
USER_CHARGES


@<TRIPOS>ATOM
      1 CA        -79.0462   28.1564  -78.5830 C.3       0 UNK        -0.1998 
      2 C         -79.2016   27.7675  -77.1213 C.2       0 UNK         0.4909 
      3 O         -78.3591   27.0409  -76.5926 O.2       0 UNK        -0.5240 
      4 N         -80.2479   28.2728  -76.4574 N.am      1 UNK        -0.4739 
      5 CA        -80.5973   27.9297  -75.0754 C.3       1 UNK         0.0864 
      6 C6        -81.4605   29.0265  -74.4045 C.3       11 UNK        -0.0881 
      7 S7        -80.5795   30.6159  -74.2423 S.3       11 UNK        -0.2682 
      8 C8        -80.2072   30.6736  -72.4601 C.3       11 UNK         0.0289 
      9 C9        -79.0134   29.8069  -72.0762 C.ar      11 UNK        -0.0687 
     10 C10       -79.1970   28.4725  -71.7034 C.ar      11 UNK        -0.0823 
     11 C11       -78.1136   27.6947  -71.2842 C.ar      11 UNK        -0.0830 
     12 C12       -76.8391   28.2712  -71.2281 C.ar      11 UNK        -0.1021 
     13 C13       -76.6339   29.6098  -71.5904 C.ar      11 UNK        -0.0753 
     14 C14       -77.7304   30.3621  -72.0260 C.ar      11 UNK        -0.0933 
     15 C15       -75.2738   30.3111  -71.4802 C.3       11 UNK         0.0166 
     16 S16       -73.8906   29.3037  -70.8318 S.3       11 UNK        -0.2615 
     17 C17       -73.3433   28.3880  -72.3147 C.3       11 UNK        -0.0865 
     18 CA        -71.8435   28.6384  -72.6420 C.3       10 UNK         0.0862 
     19 C         -70.9229   27.6112  -71.9161 C.2       10 UNK         0.5551 
     20 N         -70.2973   26.6734  -72.6180 N.am      10 UNK        -0.7319 
     21 O         -70.7637   27.6734  -70.6997 O.2       10 UNK        -0.5018 
     22 N         -71.6228   28.7496  -74.0939 N.am      10 UNK        -0.4509 
     23 C         -70.5198   29.2526  -74.6666 C.2       10 UNK         0.4899 
     24 O         -69.5715   29.7239  -74.0385 O.2       10 UNK        -0.4839 
     25 CA        -70.4663   29.2365  -76.2005 C.3       9 UNK         0.0222 
     26 CB        -70.1715   27.8175  -76.7167 C.3       9 UNK        -0.1966 
     27 N         -71.7270   29.7105  -76.7717 N.am      9 UNK        -0.4218 
     28 C         -71.9315   30.9328  -77.2818 C.2       9 UNK         0.5020 
     29 O         -71.0558   31.7951  -77.3690 O.2       9 UNK        -0.5274 
     30 CA        -73.3461   31.2586  -77.8019 C.3       8 UNK         0.0270 
     31 CB        -73.4144   31.0617  -79.3254 C.3       8 UNK        -0.1976 
     32 N         -74.4051   30.4678  -77.1704 N.am      8 UNK        -0.4313 
     33 C         -74.7943   30.5938  -75.8946 C.2       8 UNK         0.5041 
     34 O         -74.3476   31.4431  -75.1237 O.2       8 UNK        -0.5577 
     35 CA        -75.8487   29.5948  -75.3827 C.3       7 UNK         0.0284 
     36 CB        -77.2490   30.2002  -75.5277 C.3       7 UNK        -0.1958 
     37 N         -75.8259   28.2559  -75.9923 N.am      7 UNK        -0.4454 
     38 C         -74.7542   27.4647  -76.1370 C.2       7 UNK         0.5089 
     39 O         -73.6076   27.7965  -75.8326 O.2       7 UNK        -0.5125 
     40 CA        -75.0219   26.0678  -76.7197 C.3       6 UNK         0.0408 
     41 CB        -73.7248   25.3313  -77.1161 C.3       6 UNK        -0.1791 
     42 N         -75.8306   25.2425  -75.8178 N.am      6 UNK        -0.4762 
     43 C         -75.5428   24.8837  -74.5548 C.2       6 UNK         0.5007 
     44 O         -74.5258   25.2236  -73.9493 O.2       6 UNK        -0.5032 
     45 CA        -76.5540   23.9450  -73.8661 C.3       5 UNK         0.0783 
     46 C46       -77.6283   24.7362  -73.0777 C.3       11 UNK        -0.0857 
     47 S47       -77.0890   25.0755  -71.3720 S.3       11 UNK        -0.2512 
     48 C48       -78.3472   26.2654  -70.8013 C.3       11 UNK         0.0225 
     49 N         -77.1456   22.9908  -74.8150 N.am      5 UNK        -0.4615 
     50 C         -76.4854   21.9316  -75.3110 C.2       4 UNK         0.5053 
     51 O         -75.3345   21.6444  -74.9773 O.2       4 UNK        -0.5105 
     52 CA        -77.1943   21.0566  -76.3683 C.3       4 UNK         0.0263 
     53 CB        -76.7454   19.5797  -76.3143 C.3       4 UNK        -0.1981 
     54 N         -78.6580   21.1597  -76.3648 N.am      4 UNK        -0.4224 
     55 C         -79.5034   20.7992  -75.3883 C.2       3 UNK         0.4895 
     56 O         -79.1670   20.2858  -74.3195 O.2       3 UNK        -0.5091 
     57 CA        -80.9891   21.1105  -75.6496 C.3       3 UNK         0.0250 
     58 CB        -81.8658   19.8696  -75.4073 C.3       3 UNK        -0.1996 
     59 N         -81.4909   22.2227  -74.8348 N.am      3 UNK        -0.4254 
     60 C         -80.9388   23.4407  -74.7372 C.2       2 UNK         0.5004 
     61 O         -79.8980   23.7726  -75.3129 O.2       2 UNK        -0.5226 
     62 CA        -81.6731   24.4486  -73.8318 C.3       2 UNK         0.0269 
     63 CB        -81.5974   24.0360  -72.3503 C.3       2 UNK        -0.1926 
     64 N         -81.1310   25.8028  -73.9793 N.am      2 UNK        -0.4687 
     65 C         -81.3407   26.5809  -75.0493 C.2       1 UNK         0.5165 
     66 O         -82.1145   26.2886  -75.9661 O.2       1 UNK        -0.5079 
     67 H67       -78.0924   28.6596  -78.7383 H         1 UNK         0.0900 
     68 H68       -79.8408   28.8252  -78.9135 H         1 UNK         0.0900 
     69 H69       -79.0685   27.2658  -79.2104 H         1 UNK         0.0900 
     70 H70       -80.9135   28.8575  -76.9417 H         1 UNK         0.2959 
     71 H71       -79.6728   27.8183  -74.5042 H         1 UNK         0.1079 
     72 H72       -82.3681   29.2034  -74.9849 H         1 UNK         0.0837 
     73 H73       -81.8012   28.7061  -73.4185 H         1 UNK         0.0837 
     74 H74       -80.0058   31.7107  -72.1876 H         1 UNK         0.0685 
     75 H75       -81.0890   30.3847  -71.8862 H         1 UNK         0.0685 
     76 H76       -80.1925   28.0515  -71.7059 H         1 UNK         0.1434 
     77 H77       -76.0167   27.6700  -70.8701 H         1 UNK         0.1329 
     78 H78       -77.5899   31.3995  -72.2980 H         1 UNK         0.1335 
     79 H79       -74.9929   30.7333  -72.4456 H         1 UNK         0.0680 
     80 H80       -75.3931   31.1613  -70.8073 H         1 UNK         0.0680 
     81 H81       -73.9644   28.6951  -73.1527 H         1 UNK         0.1032 
     82 H82       -73.5592   27.3250  -72.1855 H         1 UNK         0.1032 
     83 H83       -71.5703   29.6159  -72.2392 H         1 UNK         0.0461 
     84 H84       -69.6985   26.0162  -72.1436 H         1 UNK         0.3453 
     85 H85       -70.4271   26.6134  -73.6147 H         1 UNK         0.3453 
     86 H86       -72.3495   28.3582  -74.6901 H         1 UNK         0.2984 
     87 H87       -69.6433   29.8819  -76.5146 H         1 UNK         0.0554 
     88 H88       -70.0721   27.8063  -77.8022 H         1 UNK         0.0847 
     89 H89       -70.9585   27.1116  -76.4481 H         1 UNK         0.0847 
     90 H90       -69.2362   27.4382  -76.3028 H         1 UNK         0.0847 
     91 H91       -72.5216   29.0845  -76.6725 H         1 UNK         0.3141 
     92 H92       -73.5381   32.3117  -77.5850 H         1 UNK         0.0743 
     93 H93       -72.6572   31.6634  -79.8304 H         1 UNK         0.0784 
     94 H94       -73.2444   30.0217  -79.6071 H         1 UNK         0.0784 
     95 H95       -74.3833   31.3651  -79.7227 H         1 UNK         0.0784 
     96 H96       -74.8367   29.7475  -77.7308 H         1 UNK         0.3213 
     97 H97       -75.6697   29.4519  -74.3195 H         1 UNK         0.0855 
     98 H98       -77.3047   31.1842  -75.0599 H         1 UNK         0.0814 
     99 H99       -77.9887   29.5727  -75.0343 H         1 UNK         0.0814 
    100 H100      -77.5390   30.3168  -76.5720 H         1 UNK         0.0814 
    101 H101      -76.7310   27.8515  -76.2281 H         1 UNK         0.3105 
    102 H102      -75.6116   26.2103  -77.6266 H         1 UNK         0.0547 
    103 H103      -73.1542   25.9113  -77.8424 H         1 UNK         0.0837 
    104 H104      -73.0742   25.1594  -76.2578 H         1 UNK         0.0837 
    105 H105      -73.9408   24.3643  -77.5699 H         1 UNK         0.0837 
    106 H106      -76.7260   24.9516  -76.1872 H         1 UNK         0.3020 
    107 H107      -75.9810   23.3484  -73.1516 H         1 UNK         0.1245 
    108 H108      -78.5372   24.1427  -72.9981 H         1 UNK         0.0781 
    109 H109      -77.9122   25.6627  -73.5823 H         1 UNK         0.0781 
    110 H110      -78.3381   26.2734  -69.7106 H         1 UNK         0.0836 
    111 H111      -79.3350   25.9077  -71.0931 H         1 UNK         0.0836 
    112 H112      -78.1001   23.1773  -75.1151 H         1 UNK         0.3022 
    113 H113      -76.8746   21.4549  -77.3323 H         1 UNK         0.0747 
    114 H114      -77.2441   18.9845  -77.0791 H         1 UNK         0.0793 
    115 H115      -75.6722   19.4885  -76.4862 H         1 UNK         0.0793 
    116 H116      -76.9570   19.1271  -75.3451 H         1 UNK         0.0793 
    117 H117      -79.0532   21.6176  -77.1750 H         1 UNK         0.3047 
    118 H118      -81.1062   21.3998  -76.6961 H         1 UNK         0.0822 
    119 H119      -82.9036   20.0539  -75.6858 H         1 UNK         0.0807 
    120 H120      -81.8482   19.5598  -74.3614 H         1 UNK         0.0807 
    121 H121      -81.5178   19.0241  -76.0025 H         1 UNK         0.0807 
    122 H122      -82.3292   22.0346  -74.3044 H         1 UNK         0.2946 
    123 H123      -82.7230   24.4639  -74.1346 H         1 UNK         0.1144 
    124 H124      -82.0816   23.0730  -72.1839 H         1 UNK         0.0793 
    125 H125      -82.1048   24.7595  -71.7117 H         1 UNK         0.0793 
    126 H126      -80.5710   23.9425  -71.9984 H         1 UNK         0.0793 
    127 H127      -80.4675   26.0982  -73.2809 H         1 UNK         0.2896 
@<TRIPOS>BOND
     1    1    2 1    
     2    1   67 1    
     3    1   68 1    
     4    1   69 1    
     5    2    3 2    
     6    2    4 am   BACKBONE|DICT|INTERRES
     7    4    5 1    
     8    4   70 1    
     9    5    6 1    
    10    5   65 1    
    11    5   71 1    
    12    6    7 1    
    13    6   72 1    
    14    6   73 1    
    15    7    8 1    
    16    8    9 1    
    17    8   74 1    
    18    8   75 1    
    19    9   10 ar   
    20    9   14 ar   
    21   10   11 ar   
    22   10   76 1    
    23   11   12 ar   
    24   11   48 1    
    25   12   13 ar   
    26   12   77 1    
    27   13   14 ar   
    28   13   15 1    
    29   14   78 1    
    30   15   16 1    
    31   15   79 1    
    32   15   80 1    
    33   16   17 1    
    34   17   18 1    
    35   17   81 1    
    36   17   82 1    
    37   18   19 1    
    38   18   22 1    
    39   18   83 1    
    40   19   20 am   BACKBONE|DICT|INTERRES
    41   19   21 2    
    42   20   84 1    
    43   20   85 1    
    44   22   23 am   BACKBONE|DICT|INTERRES
    45   22   86 1    
    46   23   24 2    
    47   23   25 1    
    48   25   26 1    
    49   25   27 1    
    50   25   87 1    
    51   26   88 1    
    52   26   89 1    
    53   26   90 1    
    54   27   28 am   BACKBONE|DICT|INTERRES
    55   27   91 1    
    56   28   29 2    
    57   28   30 1    
    58   30   31 1    
    59   30   32 1    
    60   30   92 1    
    61   31   93 1    
    62   31   94 1    
    63   31   95 1    
    64   32   33 am   BACKBONE|DICT|INTERRES
    65   32   96 1    
    66   33   34 2    
    67   33   35 1    
    68   35   36 1    
    69   35   37 1    
    70   35   97 1    
    71   36   98 1    
    72   36   99 1    
    73   36  100 1    
    74   37   38 am   BACKBONE|DICT|INTERRES
    75   37  101 1    
    76   38   39 2    
    77   38   40 1    
    78   40   41 1    
    79   40   42 1    
    80   40  102 1    
    81   41  103 1    
    82   41  104 1    
    83   41  105 1    
    84   42   43 am   BACKBONE|DICT|INTERRES
    85   42  106 1    
    86   43   44 2    
    87   43   45 1    
    88   45   46 1    
    89   45   49 1    
    90   45  107 1    
    91   46   47 1    
    92   46  108 1    
    93   46  109 1    
    94   47   48 1    
    95   48  110 1    
    96   48  111 1    
    97   49   50 am   BACKBONE|DICT|INTERRES
    98   49  112 1    
    99   50   51 2    
   100   50   52 1    
   101   52   53 1    
   102   52   54 1    
   103   52  113 1    
   104   53  114 1    
   105   53  115 1    
   106   53  116 1    
   107   54   55 am   BACKBONE|DICT|INTERRES
   108   54  117 1    
   109   55   56 2    
   110   55   57 1    
   111   57   58 1    
   112   57   59 1    
   113   57  118 1    
   114   58  119 1    
   115   58  120 1    
   116   58  121 1    
   117   59   60 am   BACKBONE|DICT|INTERRES
   118   59  122 1    
   119   60   61 2    
   120   60   62 1    
   121   62   63 1    
   122   62   64 1    
   123   62  123 1    
   124   63  124 1    
   125   63  125 1    
   126   63  126 1    
   127   64   65 am   BACKBONE|DICT|INTERRES
   128   64  127 1    
   129   65   66 2    
@<TRIPOS>SUBSTRUCTURE
     1 UNK         1 GROUP             0       ****    0 ROOT    
