@<TRIPOS>MOLECULE
3R135
127   129    1
SMALL
USER_CHARGES


@<TRIPOS>ATOM
      1 CA        -86.2666   26.5415  -73.2675 C.3       0 UNK        -0.1998 
      2 C         -84.7803   26.3547  -73.5350 C.2       0 UNK         0.4909 
      3 O         -84.3511   26.4581  -74.6848 O.2       0 UNK        -0.5240 
      4 N         -83.9991   26.0884  -72.4809 N.am      1 UNK        -0.4739 
      5 CA        -82.5601   25.8134  -72.5406 C.3       1 UNK         0.0864 
      6 C6        -81.7926   26.6118  -71.4496 C.3       11 UNK        -0.0881 
      7 S7        -80.0600   26.9415  -71.9256 S.3       11 UNK        -0.2682 
      8 C8        -80.0810   28.7590  -72.0859 C.3       11 UNK         0.0289 
      9 C9        -78.7550   29.3362  -72.5729 C.ar      11 UNK        -0.0687 
     10 C10       -78.7430   30.3008  -73.5870 C.ar      11 UNK        -0.0823 
     11 C11       -77.5396   30.8720  -74.0148 C.ar      11 UNK        -0.0830 
     12 C12       -76.3385   30.4567  -73.4322 C.ar      11 UNK        -0.1021 
     13 C13       -76.3342   29.4920  -72.4218 C.ar      11 UNK        -0.0753 
     14 C14       -77.5451   28.9455  -71.9883 C.ar      11 UNK        -0.0933 
     15 C15       -75.0211   29.0116  -71.8265 C.3       11 UNK         0.0166 
     16 S16       -74.1031   30.3378  -70.9840 S.3       11 UNK        -0.2615 
     17 C17       -72.6567   29.3954  -70.3883 C.3       11 UNK        -0.0865 
     18 CA        -71.4106   29.4983  -71.3092 C.3       10 UNK         0.0862 
     19 C         -70.2269   28.7020  -70.6834 C.2       10 UNK         0.5551 
     20 N         -69.8742   27.5278  -71.1968 N.am      10 UNK        -0.7319 
     21 O         -69.6251   29.1591  -69.7150 O.2       10 UNK        -0.5018 
     22 N         -71.7167   29.1146  -72.6962 N.am      10 UNK        -0.4509 
     23 C         -70.9099   29.2982  -73.7480 C.2       10 UNK         0.4899 
     24 O         -69.8747   29.9642  -73.6982 O.2       10 UNK        -0.4839 
     25 CA        -71.3166   28.6297  -75.0801 C.3       9 UNK         0.0222 
     26 CB        -70.0943   28.0644  -75.8324 C.3       9 UNK        -0.1966 
     27 N         -72.3632   27.5987  -74.9875 N.am      9 UNK        -0.4218 
     28 C         -72.3513   26.4688  -74.2604 C.2       9 UNK         0.5020 
     29 O         -71.4728   26.1823  -73.4449 O.2       9 UNK        -0.5274 
     30 CA        -73.5229   25.4959  -74.4788 C.3       8 UNK         0.0270 
     31 CB        -74.7986   25.9856  -73.7745 C.3       8 UNK        -0.1976 
     32 N         -73.8079   25.2756  -75.8963 N.am      8 UNK        -0.4313 
     33 C         -73.0041   24.6214  -76.7463 C.2       8 UNK         0.5041 
     34 O         -71.9448   24.0839  -76.4207 O.2       8 UNK        -0.5577 
     35 CA        -73.4579   24.5633  -78.2118 C.3       7 UNK         0.0284 
     36 CB        -74.5351   23.4836  -78.4123 C.3       7 UNK        -0.1958 
     37 N         -73.9585   25.8627  -78.6640 N.am      7 UNK        -0.4454 
     38 C         -73.1719   26.8752  -79.0559 C.2       7 UNK         0.5089 
     39 O         -71.9464   26.7953  -79.1421 O.2       7 UNK        -0.5125 
     40 CA        -73.8589   28.2032  -79.4260 C.3       6 UNK         0.0408 
     41 CB        -74.0510   28.2981  -80.9479 C.3       6 UNK        -0.1791 
     42 N         -75.1504   28.4112  -78.7650 N.am      6 UNK        -0.4762 
     43 C         -75.3052   28.6445  -77.4534 C.2       6 UNK         0.5007 
     44 O         -74.3742   28.6760  -76.6483 O.2       6 UNK        -0.5032 
     45 CA        -76.7575   28.7922  -76.9491 C.3       5 UNK         0.0783 
     46 C46       -77.3564   30.1854  -77.2706 C.3       11 UNK        -0.0857 
     47 S47       -76.4677   31.5778  -76.4953 S.3       11 UNK        -0.2512 
     48 C48       -77.5407   31.9667  -75.0752 C.3       11 UNK         0.0225 
     49 N         -77.6356   27.7254  -77.4483 N.am      5 UNK        -0.4615 
     50 C         -77.4177   26.4112  -77.3172 C.2       4 UNK         0.5053 
     51 O         -76.4018   25.9278  -76.8126 O.2       4 UNK        -0.5105 
     52 CA        -78.4891   25.4759  -77.9007 C.3       4 UNK         0.0263 
     53 CB        -78.1538   25.1265  -79.3598 C.3       4 UNK        -0.1981 
     54 N         -78.5931   24.2418  -77.1194 N.am      4 UNK        -0.4224 
     55 C         -79.0381   24.1947  -75.8578 C.2       3 UNK         0.4895 
     56 O         -79.5315   25.1615  -75.2676 O.2       3 UNK        -0.5091 
     57 CA        -78.8965   22.8505  -75.1311 C.3       3 UNK         0.0250 
     58 CB        -77.4170   22.4702  -74.9230 C.3       3 UNK        -0.1996 
     59 N         -79.5598   22.9814  -73.8410 N.am      3 UNK        -0.4254 
     60 C         -80.0782   22.0055  -73.0906 C.2       2 UNK         0.5004 
     61 O         -80.0085   20.8088  -73.3730 O.2       2 UNK        -0.5226 
     62 CA        -80.8016   22.4435  -71.8036 C.3       2 UNK         0.0269 
     63 CB        -79.8900   22.2451  -70.5815 C.3       2 UNK        -0.1926 
     64 N         -81.2371   23.8447  -71.8517 N.am      2 UNK        -0.4687 
     65 C         -82.3220   24.2844  -72.5045 C.2       1 UNK         0.5165 
     66 O         -83.1127   23.5260  -73.0717 O.2       1 UNK        -0.5079 
     67 H67       -86.5853   27.5313  -73.5937 H         1 UNK         0.0900 
     68 H68       -86.5075   26.4400  -72.2094 H         1 UNK         0.0900 
     69 H69       -86.8426   25.7988  -73.8189 H         1 UNK         0.0900 
     70 H70       -84.4241   25.9775  -71.5708 H         1 UNK         0.2959 
     71 H71       -82.1830   26.1406  -73.5128 H         1 UNK         0.1079 
     72 H72       -82.2845   27.5721  -71.2852 H         1 UNK         0.0837 
     73 H73       -81.8230   26.1124  -70.4792 H         1 UNK         0.0837 
     74 H74       -80.3202   29.2009  -71.1176 H         1 UNK         0.0685 
     75 H75       -80.8881   29.0364  -72.7662 H         1 UNK         0.0685 
     76 H76       -79.6756   30.6226  -74.0303 H         1 UNK         0.1434 
     77 H77       -75.4030   30.8874  -73.7634 H         1 UNK         0.1329 
     78 H78       -77.5478   28.2046  -71.2005 H         1 UNK         0.1335 
     79 H79       -74.4084   28.6114  -72.6322 H         1 UNK         0.0680 
     80 H80       -75.1939   28.1933  -71.1255 H         1 UNK         0.0680 
     81 H81       -72.4137   29.7758  -69.3940 H         1 UNK         0.1032 
     82 H82       -72.9387   28.3510  -70.2400 H         1 UNK         0.1032 
     83 H83       -71.1029   30.5455  -71.3310 H         1 UNK         0.0461 
     84 H84       -70.3784   27.1354  -71.9849 H         1 UNK         0.3453 
     85 H85       -69.1072   27.0192  -70.7872 H         1 UNK         0.3453 
     86 H86       -72.5358   28.5446  -72.8292 H         1 UNK         0.2984 
     87 H87       -71.7414   29.4255  -75.6934 H         1 UNK         0.0554 
     88 H88       -70.3848   27.6320  -76.7903 H         1 UNK         0.0847 
     89 H89       -69.5900   27.2891  -75.2545 H         1 UNK         0.0847 
     90 H90       -69.3614   28.8445  -76.0416 H         1 UNK         0.0847 
     91 H91       -73.1653   27.7723  -75.5925 H         1 UNK         0.3141 
     92 H92       -73.2422   24.5359  -74.0403 H         1 UNK         0.0743 
     93 H93       -74.6239   26.1356  -72.7087 H         1 UNK         0.0784 
     94 H94       -75.1591   26.9260  -74.1936 H         1 UNK         0.0784 
     95 H95       -75.6044   25.2580  -73.8679 H         1 UNK         0.0784 
     96 H96       -74.6966   25.6317  -76.2463 H         1 UNK         0.3213 
     97 H97       -72.5931   24.2880  -78.8200 H         1 UNK         0.0855 
     98 H98       -75.4250   23.6743  -77.8125 H         1 UNK         0.0814 
     99 H99       -74.1562   22.5025  -78.1232 H         1 UNK         0.0814 
    100 H100      -74.8400   23.4168  -79.4566 H         1 UNK         0.0814 
    101 H101      -74.9487   26.0342  -78.5597 H         1 UNK         0.3105 
    102 H102      -73.1916   29.0110  -79.1176 H         1 UNK         0.0547 
    103 H103      -74.7255   27.5259  -81.3201 H         1 UNK         0.0837 
    104 H104      -74.4553   29.2679  -81.2384 H         1 UNK         0.0837 
    105 H105      -73.1001   28.1777  -81.4691 H         1 UNK         0.0837 
    106 H106      -75.9737   28.3801  -79.3491 H         1 UNK         0.3020 
    107 H107      -76.7240   28.6806  -75.8626 H         1 UNK         0.1245 
    108 H108      -78.3993   30.2219  -76.9516 H         1 UNK         0.0781 
    109 H109      -77.3730   30.3549  -78.3488 H         1 UNK         0.0781 
    110 H110      -77.1897   32.8926  -74.6176 H         1 UNK         0.0836 
    111 H111      -78.5511   32.1694  -75.4339 H         1 UNK         0.0836 
    112 H112      -78.4904   28.0281  -77.8924 H         1 UNK         0.3022 
    113 H113      -79.4565   25.9821  -77.8715 H         1 UNK         0.0747 
    114 H114      -78.0969   26.0251  -79.9756 H         1 UNK         0.0793 
    115 H115      -78.9181   24.4848  -79.7989 H         1 UNK         0.0793 
    116 H116      -77.1960   24.6124  -79.4455 H         1 UNK         0.0793 
    117 H117      -78.1864   23.4123  -77.5256 H         1 UNK         0.3047 
    118 H118      -79.4016   22.0835  -75.7220 H         1 UNK         0.0822 
    119 H119      -76.8974   22.3505  -75.8741 H         1 UNK         0.0807 
    120 H120      -77.3213   21.5268  -74.3853 H         1 UNK         0.0807 
    121 H121      -76.8839   23.2328  -74.3546 H         1 UNK         0.0807 
    122 H122      -79.7171   23.9447  -73.5689 H         1 UNK         0.2946 
    123 H123      -81.6788   21.8025  -71.6872 H         1 UNK         0.1144 
    124 H124      -79.5660   21.2064  -70.5011 H         1 UNK         0.0793 
    125 H125      -80.4084   22.4937  -69.6553 H         1 UNK         0.0793 
    126 H126      -78.9928   22.8627  -70.6416 H         1 UNK         0.0793 
    127 H127      -80.6279   24.5297  -71.4234 H         1 UNK         0.2896 
@<TRIPOS>BOND
     1    1    2 1    
     2    1   67 1    
     3    1   68 1    
     4    1   69 1    
     5    2    3 2    
     6    2    4 am   BACKBONE|DICT|INTERRES
     7    4    5 1    
     8    4   70 1    
     9    5    6 1    
    10    5   65 1    
    11    5   71 1    
    12    6    7 1    
    13    6   72 1    
    14    6   73 1    
    15    7    8 1    
    16    8    9 1    
    17    8   74 1    
    18    8   75 1    
    19    9   10 ar   
    20    9   14 ar   
    21   10   11 ar   
    22   10   76 1    
    23   11   12 ar   
    24   11   48 1    
    25   12   13 ar   
    26   12   77 1    
    27   13   14 ar   
    28   13   15 1    
    29   14   78 1    
    30   15   16 1    
    31   15   79 1    
    32   15   80 1    
    33   16   17 1    
    34   17   18 1    
    35   17   81 1    
    36   17   82 1    
    37   18   19 1    
    38   18   22 1    
    39   18   83 1    
    40   19   20 am   BACKBONE|DICT|INTERRES
    41   19   21 2    
    42   20   84 1    
    43   20   85 1    
    44   22   23 am   BACKBONE|DICT|INTERRES
    45   22   86 1    
    46   23   24 2    
    47   23   25 1    
    48   25   26 1    
    49   25   27 1    
    50   25   87 1    
    51   26   88 1    
    52   26   89 1    
    53   26   90 1    
    54   27   28 am   BACKBONE|DICT|INTERRES
    55   27   91 1    
    56   28   29 2    
    57   28   30 1    
    58   30   31 1    
    59   30   32 1    
    60   30   92 1    
    61   31   93 1    
    62   31   94 1    
    63   31   95 1    
    64   32   33 am   BACKBONE|DICT|INTERRES
    65   32   96 1    
    66   33   34 2    
    67   33   35 1    
    68   35   36 1    
    69   35   37 1    
    70   35   97 1    
    71   36   98 1    
    72   36   99 1    
    73   36  100 1    
    74   37   38 am   BACKBONE|DICT|INTERRES
    75   37  101 1    
    76   38   39 2    
    77   38   40 1    
    78   40   41 1    
    79   40   42 1    
    80   40  102 1    
    81   41  103 1    
    82   41  104 1    
    83   41  105 1    
    84   42   43 am   BACKBONE|DICT|INTERRES
    85   42  106 1    
    86   43   44 2    
    87   43   45 1    
    88   45   46 1    
    89   45   49 1    
    90   45  107 1    
    91   46   47 1    
    92   46  108 1    
    93   46  109 1    
    94   47   48 1    
    95   48  110 1    
    96   48  111 1    
    97   49   50 am   BACKBONE|DICT|INTERRES
    98   49  112 1    
    99   50   51 2    
   100   50   52 1    
   101   52   53 1    
   102   52   54 1    
   103   52  113 1    
   104   53  114 1    
   105   53  115 1    
   106   53  116 1    
   107   54   55 am   BACKBONE|DICT|INTERRES
   108   54  117 1    
   109   55   56 2    
   110   55   57 1    
   111   57   58 1    
   112   57   59 1    
   113   57  118 1    
   114   58  119 1    
   115   58  120 1    
   116   58  121 1    
   117   59   60 am   BACKBONE|DICT|INTERRES
   118   59  122 1    
   119   60   61 2    
   120   60   62 1    
   121   62   63 1    
   122   62   64 1    
   123   62  123 1    
   124   63  124 1    
   125   63  125 1    
   126   63  126 1    
   127   64   65 am   BACKBONE|DICT|INTERRES
   128   64  127 1    
   129   65   66 2    
@<TRIPOS>SUBSTRUCTURE
     1 UNK         1 GROUP             0       ****    0 ROOT    
