@<TRIPOS>MOLECULE
3R135
127   129    1
SMALL
USER_CHARGES


@<TRIPOS>ATOM
      1 CA        -78.8680   21.2175  -73.1635 C.3       0 UNK        -0.1998 
      2 C         -79.3730   22.2157  -72.1326 C.2       0 UNK         0.4909 
      3 O         -79.8181   21.8146  -71.0573 O.2       0 UNK        -0.5240 
      4 N         -79.3257   23.5113  -72.4615 N.am      1 UNK        -0.4739 
      5 CA        -79.7901   24.6243  -71.6258 C.3       1 UNK         0.0864 
      6 C6        -78.7140   25.7423  -71.5490 C.3       11 UNK        -0.0881 
      7 S7        -78.7191   26.6238  -69.9496 S.3       11 UNK        -0.2682 
      8 C8        -79.5948   28.1767  -70.3331 C.3       11 UNK         0.0289 
      9 C9        -78.8909   28.9986  -71.4039 C.ar      11 UNK        -0.0687 
     10 C10       -79.4739   29.1646  -72.6633 C.ar      11 UNK        -0.0823 
     11 C11       -78.8336   29.9174  -73.6518 C.ar      11 UNK        -0.0830 
     12 C12       -77.5938   30.5036  -73.3749 C.ar      11 UNK        -0.1021 
     13 C13       -77.0072   30.3544  -72.1130 C.ar      11 UNK        -0.0753 
     14 C14       -77.6629   29.6058  -71.1315 C.ar      11 UNK        -0.0933 
     15 C15       -75.6734   31.0101  -71.7942 C.3       11 UNK         0.0166 
     16 S16       -74.3411   29.7771  -71.7278 S.3       11 UNK        -0.2615 
     17 C17       -72.9043   30.8407  -71.3568 C.3       11 UNK        -0.0865 
     18 CA        -72.2035   31.3652  -72.6358 C.3       10 UNK         0.0862 
     19 C         -70.9941   32.2684  -72.2725 C.2       10 UNK         0.5551 
     20 N         -71.2162   33.5663  -72.1162 N.am      10 UNK        -0.7319 
     21 O         -69.8725   31.7994  -72.0872 O.2       10 UNK        -0.5018 
     22 N         -71.8412   30.2610  -73.5309 N.am      10 UNK        -0.4509 
     23 C         -71.4531   30.3760  -74.8028 C.2       10 UNK         0.4899 
     24 O         -71.3348   31.4534  -75.3876 O.2       10 UNK        -0.4839 
     25 CA        -71.1863   29.0746  -75.5790 C.3       9 UNK         0.0222 
     26 CB        -69.6950   28.6905  -75.5321 C.3       9 UNK        -0.1966 
     27 N         -72.0496   27.9431  -75.2079 N.am      9 UNK        -0.4218 
     28 C         -72.0655   27.2019  -74.0889 C.2       9 UNK         0.5020 
     29 O         -71.3650   27.4291  -73.1019 O.2       9 UNK        -0.5274 
     30 CA        -73.0256   25.9957  -74.0693 C.3       8 UNK         0.0270 
     31 CB        -74.3937   26.3951  -73.4917 C.3       8 UNK        -0.1976 
     32 N         -73.2062   25.3912  -75.3939 N.am      8 UNK        -0.4313 
     33 C         -72.2368   24.7741  -76.0881 C.2       8 UNK         0.5041 
     34 O         -71.1111   24.5455  -75.6437 O.2       8 UNK        -0.5577 
     35 CA        -72.5675   24.3726  -77.5334 C.3       7 UNK         0.0284 
     36 CB        -73.2464   22.9942  -77.5757 C.3       7 UNK        -0.1958 
     37 N         -73.4172   25.3749  -78.1822 N.am      7 UNK        -0.4454 
     38 C         -72.9588   26.5221  -78.7057 C.2       7 UNK         0.5089 
     39 O         -71.7652   26.8155  -78.7696 O.2       7 UNK        -0.5125 
     40 CA        -74.0016   27.5242  -79.2366 C.3       6 UNK         0.0408 
     41 CB        -74.2469   27.2972  -80.7365 C.3       6 UNK        -0.1791 
     42 N         -75.2802   27.4727  -78.5224 N.am      6 UNK        -0.4762 
     43 C         -75.4583   27.8385  -77.2435 C.2       6 UNK         0.5007 
     44 O         -74.5618   28.3022  -76.5412 O.2       6 UNK        -0.5032 
     45 CA        -76.8561   27.5934  -76.6338 C.3       5 UNK         0.0783 
     46 C46       -77.7386   28.8526  -76.8043 C.3       11 UNK        -0.0857 
     47 S47       -79.3964   28.6568  -76.0667 S.3       11 UNK        -0.2512 
     48 C48       -79.5138   30.1259  -74.9973 C.3       11 UNK         0.0225 
     49 N         -77.5005   26.3852  -77.1706 N.am      5 UNK        -0.4615 
     50 C         -77.0002   25.1445  -77.0990 C.2       4 UNK         0.5053 
     51 O         -75.9152   24.8838  -76.5747 O.2       4 UNK        -0.5105 
     52 CA        -77.8270   24.0322  -77.7734 C.3       4 UNK         0.0263 
     53 CB        -77.3424   22.6147  -77.3996 C.3       4 UNK        -0.1981 
     54 N         -79.2750   24.1649  -77.5587 N.am      4 UNK        -0.4224 
     55 C         -79.9182   24.0882  -76.3853 C.2       3 UNK         0.4895 
     56 O         -79.3536   23.9485  -75.2954 O.2       3 UNK        -0.5091 
     57 CA        -81.4536   24.1493  -76.4449 C.3       3 UNK         0.0250 
     58 CB        -82.0437   23.0027  -77.2900 C.3       3 UNK        -0.1996 
     59 N         -81.9551   24.0582  -75.0805 N.am      3 UNK        -0.4254 
     60 C         -83.1229   24.5019  -74.6046 C.2       2 UNK         0.5004 
     61 O         -84.0046   25.0033  -75.3030 O.2       2 UNK        -0.5226 
     62 CA        -83.3417   24.3622  -73.0827 C.3       2 UNK         0.0269 
     63 CB        -84.2963   23.1956  -72.7804 C.3       2 UNK        -0.1926 
     64 N         -82.0887   24.1589  -72.3423 N.am      2 UNK        -0.4687 
     65 C         -81.1519   25.1039  -72.1715 C.2       1 UNK         0.5165 
     66 O         -81.3246   26.2768  -72.5021 O.2       1 UNK        -0.5079 
     67 H67       -78.1240   20.5592  -72.7159 H         1 UNK         0.0900 
     68 H68       -78.4079   21.7131  -74.0183 H         1 UNK         0.0900 
     69 H69       -79.6917   20.6047  -73.5284 H         1 UNK         0.0900 
     70 H70       -79.0368   23.7662  -73.4039 H         1 UNK         0.2959 
     71 H71       -79.9747   24.2614  -70.6122 H         1 UNK         0.1079 
     72 H72       -77.7207   25.2971  -71.6275 H         1 UNK         0.0837 
     73 H73       -78.7711   26.4337  -72.3909 H         1 UNK         0.0837 
     74 H74       -80.6215   27.9523  -70.6231 H         1 UNK         0.0685 
     75 H75       -79.6646   28.7705  -69.4208 H         1 UNK         0.0685 
     76 H76       -80.4301   28.7068  -72.8782 H         1 UNK         0.1434 
     77 H77       -77.0929   31.0883  -74.1344 H         1 UNK         0.1329 
     78 H78       -77.2095   29.4839  -70.1570 H         1 UNK         0.1335 
     79 H79       -75.4285   31.7667  -72.5413 H         1 UNK         0.0680 
     80 H80       -75.7413   31.5269  -70.8356 H         1 UNK         0.0680 
     81 H81       -72.2041   30.2579  -70.7549 H         1 UNK         0.1032 
     82 H82       -73.2251   31.6701  -70.7234 H         1 UNK         0.1032 
     83 H83       -72.9234   31.9812  -73.1787 H         1 UNK         0.0461 
     84 H84       -70.4474   34.1678  -71.8640 H         1 UNK         0.3453 
     85 H85       -72.1335   33.9603  -72.2573 H         1 UNK         0.3453 
     86 H86       -71.8539   29.3304  -73.1275 H         1 UNK         0.2984 
     87 H87       -71.4336   29.2837  -76.6211 H         1 UNK         0.0554 
     88 H88       -69.4962   27.8040  -76.1347 H         1 UNK         0.0847 
     89 H89       -69.3566   28.4896  -74.5153 H         1 UNK         0.0847 
     90 H90       -69.0744   29.4968  -75.9250 H         1 UNK         0.0847 
     91 H91       -72.7900   27.7547  -75.8774 H         1 UNK         0.3141 
     92 H92       -72.5896   25.2359  -73.4174 H         1 UNK         0.0743 
     93 H93       -74.8422   27.2207  -74.0439 H         1 UNK         0.0784 
     94 H94       -75.0947   25.5601  -73.5031 H         1 UNK         0.0784 
     95 H95       -74.2940   26.7205  -72.4554 H         1 UNK         0.0784 
     96 H96       -74.1292   25.4548  -75.8123 H         1 UNK         0.3213 
     97 H97       -71.6279   24.2999  -78.0861 H         1 UNK         0.0855 
     98 H98       -74.1425   22.9625  -76.9565 H         1 UNK         0.0814 
     99 H99       -72.5723   22.2223  -77.2022 H         1 UNK         0.0814 
    100 H100      -73.5260   22.7164  -78.5920 H         1 UNK         0.0814 
    101 H101      -74.4166   25.2347  -78.1121 H         1 UNK         0.3105 
    102 H102      -73.5874   28.5268  -79.1087 H         1 UNK         0.0547 
    103 H103      -73.3130   27.3579  -81.2973 H         1 UNK         0.0837 
    104 H104      -74.6805   26.3159  -80.9329 H         1 UNK         0.0837 
    105 H105      -74.9180   28.0510  -81.1484 H         1 UNK         0.0837 
    106 H106      -76.0728   27.1044  -79.0286 H         1 UNK         0.3020 
    107 H107      -76.7113   27.4272  -75.5641 H         1 UNK         0.1245 
    108 H108      -77.2451   29.7178  -76.3573 H         1 UNK         0.0781 
    109 H109      -77.8695   29.0918  -77.8615 H         1 UNK         0.0781 
    110 H110      -80.5691   30.3469  -74.8302 H         1 UNK         0.0836 
    111 H111      -79.1066   30.9971  -75.5130 H         1 UNK         0.0836 
    112 H112      -78.4076   26.5188  -77.5929 H         1 UNK         0.3022 
    113 H113      -77.6699   24.1537  -78.8461 H         1 UNK         0.0747 
    114 H114      -77.9651   21.8469  -77.8587 H         1 UNK         0.0793 
    115 H115      -76.3224   22.4482  -77.7449 H         1 UNK         0.0793 
    116 H116      -77.3509   22.4535  -76.3211 H         1 UNK         0.0793 
    117 H117      -79.8279   24.2911  -78.3956 H         1 UNK         0.3047 
    118 H118      -81.7410   25.1138  -76.8688 H         1 UNK         0.0822 
    119 H119      -83.1336   23.0285  -77.2881 H         1 UNK         0.0807 
    120 H120      -81.7339   22.0269  -76.9135 H         1 UNK         0.0807 
    121 H121      -81.7273   23.0680  -78.3314 H         1 UNK         0.0807 
    122 H122      -81.2649   23.7206  -74.4225 H         1 UNK         0.2946 
    123 H123      -83.8043   25.2890  -72.7352 H         1 UNK         0.1144 
    124 H124      -85.2499   23.3291  -73.2933 H         1 UNK         0.0793 
    125 H125      -84.5114   23.1246  -71.7140 H         1 UNK         0.0793 
    126 H126      -83.8827   22.2401  -73.1054 H         1 UNK         0.0793 
    127 H127      -81.8795   23.2161  -72.0430 H         1 UNK         0.2896 
@<TRIPOS>BOND
     1    1    2 1    
     2    1   67 1    
     3    1   68 1    
     4    1   69 1    
     5    2    3 2    
     6    2    4 am   BACKBONE|DICT|INTERRES
     7    4    5 1    
     8    4   70 1    
     9    5    6 1    
    10    5   65 1    
    11    5   71 1    
    12    6    7 1    
    13    6   72 1    
    14    6   73 1    
    15    7    8 1    
    16    8    9 1    
    17    8   74 1    
    18    8   75 1    
    19    9   10 ar   
    20    9   14 ar   
    21   10   11 ar   
    22   10   76 1    
    23   11   12 ar   
    24   11   48 1    
    25   12   13 ar   
    26   12   77 1    
    27   13   14 ar   
    28   13   15 1    
    29   14   78 1    
    30   15   16 1    
    31   15   79 1    
    32   15   80 1    
    33   16   17 1    
    34   17   18 1    
    35   17   81 1    
    36   17   82 1    
    37   18   19 1    
    38   18   22 1    
    39   18   83 1    
    40   19   20 am   BACKBONE|DICT|INTERRES
    41   19   21 2    
    42   20   84 1    
    43   20   85 1    
    44   22   23 am   BACKBONE|DICT|INTERRES
    45   22   86 1    
    46   23   24 2    
    47   23   25 1    
    48   25   26 1    
    49   25   27 1    
    50   25   87 1    
    51   26   88 1    
    52   26   89 1    
    53   26   90 1    
    54   27   28 am   BACKBONE|DICT|INTERRES
    55   27   91 1    
    56   28   29 2    
    57   28   30 1    
    58   30   31 1    
    59   30   32 1    
    60   30   92 1    
    61   31   93 1    
    62   31   94 1    
    63   31   95 1    
    64   32   33 am   BACKBONE|DICT|INTERRES
    65   32   96 1    
    66   33   34 2    
    67   33   35 1    
    68   35   36 1    
    69   35   37 1    
    70   35   97 1    
    71   36   98 1    
    72   36   99 1    
    73   36  100 1    
    74   37   38 am   BACKBONE|DICT|INTERRES
    75   37  101 1    
    76   38   39 2    
    77   38   40 1    
    78   40   41 1    
    79   40   42 1    
    80   40  102 1    
    81   41  103 1    
    82   41  104 1    
    83   41  105 1    
    84   42   43 am   BACKBONE|DICT|INTERRES
    85   42  106 1    
    86   43   44 2    
    87   43   45 1    
    88   45   46 1    
    89   45   49 1    
    90   45  107 1    
    91   46   47 1    
    92   46  108 1    
    93   46  109 1    
    94   47   48 1    
    95   48  110 1    
    96   48  111 1    
    97   49   50 am   BACKBONE|DICT|INTERRES
    98   49  112 1    
    99   50   51 2    
   100   50   52 1    
   101   52   53 1    
   102   52   54 1    
   103   52  113 1    
   104   53  114 1    
   105   53  115 1    
   106   53  116 1    
   107   54   55 am   BACKBONE|DICT|INTERRES
   108   54  117 1    
   109   55   56 2    
   110   55   57 1    
   111   57   58 1    
   112   57   59 1    
   113   57  118 1    
   114   58  119 1    
   115   58  120 1    
   116   58  121 1    
   117   59   60 am   BACKBONE|DICT|INTERRES
   118   59  122 1    
   119   60   61 2    
   120   60   62 1    
   121   62   63 1    
   122   62   64 1    
   123   62  123 1    
   124   63  124 1    
   125   63  125 1    
   126   63  126 1    
   127   64   65 am   BACKBONE|DICT|INTERRES
   128   64  127 1    
   129   65   66 2    
@<TRIPOS>SUBSTRUCTURE
     1 UNK         1 GROUP             0       ****    0 ROOT    
