@<TRIPOS>MOLECULE
3R135
127   129    1
SMALL
USER_CHARGES


@<TRIPOS>ATOM
      1 CA        -78.6155   20.8737  -71.7204 C.3       0 UNK        -0.1998 
      2 C         -79.9776   21.5281  -71.5450 C.2       0 UNK         0.4909 
      3 O         -80.9832   20.8293  -71.4180 O.2       0 UNK        -0.5240 
      4 N         -80.0195   22.8665  -71.5438 N.am      1 UNK        -0.4739 
      5 CA        -81.2396   23.6729  -71.3983 C.3       1 UNK         0.0864 
      6 C6        -80.9188   25.0824  -70.8380 C.3       11 UNK        -0.0881 
      7 S7        -79.7808   26.0628  -71.8807 S.3       11 UNK        -0.2682 
      8 C8        -80.3800   27.7441  -71.5382 C.3       11 UNK         0.0289 
      9 C9        -79.3545   28.7914  -71.9441 C.ar      11 UNK        -0.0687 
     10 C10       -79.4868   29.4939  -73.1461 C.ar      11 UNK        -0.0823 
     11 C11       -78.5675   30.4903  -73.4916 C.ar      11 UNK        -0.0830 
     12 C12       -77.5078   30.7685  -72.6194 C.ar      11 UNK        -0.1021 
     13 C13       -77.3360   30.0476  -71.4331 C.ar      11 UNK        -0.0753 
     14 C14       -78.2811   29.0753  -71.0941 C.ar      11 UNK        -0.0933 
     15 C15       -76.1662   30.3141  -70.4827 C.3       11 UNK         0.0166 
     16 S16       -74.6672   31.0117  -71.2661 S.3       11 UNK        -0.2615 
     17 C17       -74.1705   29.6603  -72.3889 C.3       11 UNK        -0.0865 
     18 CA        -72.6555   29.6762  -72.7363 C.3       10 UNK         0.0862 
     19 C         -71.7823   29.0264  -71.6164 C.2       10 UNK         0.5551 
     20 N         -71.0006   27.9868  -71.8844 N.am      10 UNK        -0.7319 
     21 O         -71.7993   29.4825  -70.4763 O.2       10 UNK        -0.5018 
     22 N         -72.4175   29.1375  -74.0869 N.am      10 UNK        -0.4509 
     23 C         -71.3388   29.4020  -74.8379 C.2       10 UNK         0.4899 
     24 O         -70.4825   30.2326  -74.5294 O.2       10 UNK        -0.4839 
     25 CA        -71.1829   28.5853  -76.1414 C.3       9 UNK         0.0222 
     26 CB        -69.7390   28.6002  -76.6867 C.3       9 UNK        -0.1966 
     27 N         -71.6771   27.2049  -76.0265 N.am      9 UNK        -0.4218 
     28 C         -71.2870   26.2827  -75.1319 C.2       9 UNK         0.5020 
     29 O         -70.3766   26.4669  -74.3230 O.2       9 UNK        -0.5274 
     30 CA        -72.0545   24.9512  -75.0808 C.3       8 UNK         0.0270 
     31 CB        -72.5740   24.6746  -73.6573 C.3       8 UNK        -0.1976 
     32 N         -73.1876   24.8967  -76.0121 N.am      8 UNK        -0.4313 
     33 C         -73.4492   23.8565  -76.8158 C.2       8 UNK         0.5041 
     34 O         -72.7236   22.8648  -76.9077 O.2       8 UNK        -0.5577 
     35 CA        -74.7401   23.8971  -77.6513 C.3       7 UNK         0.0284 
     36 CB        -75.8815   23.1628  -76.9278 C.3       7 UNK        -0.1958 
     37 N         -75.1844   25.2416  -78.0250 N.am      7 UNK        -0.4454 
     38 C         -74.5878   25.9940  -78.9607 C.2       7 UNK         0.5089 
     39 O         -73.5250   25.6968  -79.5059 O.2       7 UNK        -0.5125 
     40 CA        -75.3053   27.2870  -79.3695 C.3       6 UNK         0.0408 
     41 CB        -76.4990   26.9723  -80.2865 C.3       6 UNK        -0.1791 
     42 N         -75.7787   28.0184  -78.1972 N.am      6 UNK        -0.4762 
     43 C         -75.1442   29.0607  -77.6436 C.2       6 UNK         0.5007 
     44 O         -74.1034   29.5453  -78.0869 O.2       6 UNK        -0.5032 
     45 CA        -75.7806   29.6714  -76.3758 C.3       5 UNK         0.0783 
     46 C46       -76.8569   30.7021  -76.8046 C.3       11 UNK        -0.0857 
     47 S47       -77.2353   31.9341  -75.5212 S.3       11 UNK        -0.2512 
     48 C48       -78.7782   31.3042  -74.7682 C.3       11 UNK         0.0225 
     49 N         -76.3381   28.6500  -75.4780 N.am      5 UNK        -0.4615 
     50 C         -75.6907   27.5734  -75.0074 C.2       4 UNK         0.5053 
     51 O         -74.4799   27.3972  -75.1289 O.2       4 UNK        -0.5105 
     52 CA        -76.5294   26.4608  -74.3560 C.3       4 UNK         0.0263 
     53 CB        -76.3562   26.4692  -72.8331 C.3       4 UNK        -0.1981 
     54 N         -77.9542   26.4845  -74.7212 N.am      4 UNK        -0.4224 
     55 C         -78.4056   26.3354  -75.9761 C.2       3 UNK         0.4895 
     56 O         -77.6617   26.1338  -76.9393 O.2       3 UNK        -0.5091 
     57 CA        -79.9202   26.4143  -76.1899 C.3       3 UNK         0.0250 
     58 CB        -80.2672   26.7267  -77.6641 C.3       3 UNK        -0.1996 
     59 N         -80.4937   25.1421  -75.7614 N.am      3 UNK        -0.4254 
     60 C         -81.7964   24.8401  -75.6830 C.2       2 UNK         0.5004 
     61 O         -82.7108   25.6119  -75.9727 O.2       2 UNK        -0.5226 
     62 CA        -82.1266   23.4389  -75.1478 C.3       2 UNK         0.0269 
     63 CB        -81.6189   22.3343  -76.0917 C.3       2 UNK        -0.1926 
     64 N         -81.5493   23.2603  -73.8158 N.am      2 UNK        -0.4687 
     65 C         -82.0833   23.7575  -72.6906 C.2       1 UNK         0.5165 
     66 O         -83.1947   24.2881  -72.6464 O.2       1 UNK        -0.5079 
     67 H67       -78.3860   20.2494  -70.8574 H         1 UNK         0.0900 
     68 H68       -77.8194   21.6104  -71.8269 H         1 UNK         0.0900 
     69 H69       -78.6140   20.2418  -72.6082 H         1 UNK         0.0900 
     70 H70       -79.1659   23.3976  -71.6484 H         1 UNK         0.2959 
     71 H71       -81.8784   23.1758  -70.6645 H         1 UNK         0.1079 
     72 H72       -81.8429   25.6425  -70.6802 H         1 UNK         0.0837 
     73 H73       -80.4666   24.9867  -69.8496 H         1 UNK         0.0837 
     74 H74       -80.5930   27.8454  -70.4727 H         1 UNK         0.0685 
     75 H75       -81.3255   27.9032  -72.0594 H         1 UNK         0.0685 
     76 H76       -80.3250   29.2854  -73.7971 H         1 UNK         0.1434 
     77 H77       -76.8128   31.5583  -72.8621 H         1 UNK         0.1329 
     78 H78       -78.1772   28.5257  -70.1682 H         1 UNK         0.1335 
     79 H79       -76.5038   31.0067  -69.7108 H         1 UNK         0.0680 
     80 H80       -75.8863   29.3925  -69.9697 H         1 UNK         0.0680 
     81 H81       -74.4674   28.6962  -71.9733 H         1 UNK         0.1032 
     82 H82       -74.7638   29.7922  -73.2937 H         1 UNK         0.1032 
     83 H83       -72.3455   30.7224  -72.7739 H         1 UNK         0.0461 
     84 H84       -70.9219   27.6038  -72.8204 H         1 UNK         0.3453 
     85 H85       -70.4440   27.5949  -71.1421 H         1 UNK         0.3453 
     86 H86       -73.0740   28.4353  -74.4176 H         1 UNK         0.2984 
     87 H87       -71.8151   29.0759  -76.8807 H         1 UNK         0.0554 
     88 H88       -69.6594   28.0347  -77.6150 H         1 UNK         0.0847 
     89 H89       -69.0324   28.1752  -75.9730 H         1 UNK         0.0847 
     90 H90       -69.4112   29.6182  -76.9011 H         1 UNK         0.0847 
     91 H91       -72.4450   26.9692  -76.6377 H         1 UNK         0.3141 
     92 H92       -71.3216   24.1816  -75.3310 H         1 UNK         0.0743 
     93 H93       -71.7548   24.6341  -72.9381 H         1 UNK         0.0784 
     94 H94       -73.2603   25.4535  -73.3250 H         1 UNK         0.0784 
     95 H95       -73.0967   23.7196  -73.6031 H         1 UNK         0.0784 
     96 H96       -73.8414   25.6712  -75.9643 H         1 UNK         0.3213 
     97 H97       -74.5353   23.3517  -78.5755 H         1 UNK         0.0855 
     98 H98       -76.1435   23.6400  -75.9849 H         1 UNK         0.0814 
     99 H99       -75.5995   22.1335  -76.7019 H         1 UNK         0.0814 
    100 H100      -76.7807   23.1233  -77.5430 H         1 UNK         0.0814 
    101 H101      -76.0746   25.5535  -77.6411 H         1 UNK         0.3105 
    102 H102      -74.6011   27.8977  -79.9387 H         1 UNK         0.0547 
    103 H103      -76.9794   27.8862  -80.6357 H         1 UNK         0.0837 
    104 H104      -76.1776   26.4182  -81.1694 H         1 UNK         0.0837 
    105 H105      -77.2557   26.3707  -79.7808 H         1 UNK         0.0837 
    106 H106      -76.6028   27.6451  -77.7382 H         1 UNK         0.3020 
    107 H107      -74.9812   30.1870  -75.8391 H         1 UNK         0.1245 
    108 H108      -77.7693   30.2039  -77.1370 H         1 UNK         0.0781 
    109 H109      -76.5148   31.2827  -77.6646 H         1 UNK         0.0781 
    110 H110      -79.3426   30.7303  -75.5044 H         1 UNK         0.0836 
    111 H111      -79.4016   32.1623  -74.5140 H         1 UNK         0.0836 
    112 H112      -77.3219   28.7332  -75.2736 H         1 UNK         0.3022 
    113 H113      -76.1200   25.5178  -74.7180 H         1 UNK         0.0747 
    114 H114      -76.8602   25.6221  -72.3687 H         1 UNK         0.0793 
    115 H115      -75.3041   26.4042  -72.5556 H         1 UNK         0.0793 
    116 H116      -76.7481   27.3819  -72.3937 H         1 UNK         0.0793 
    117 H117      -78.6139   26.6143  -73.9638 H         1 UNK         0.3047 
    118 H118      -80.3152   27.2114  -75.5568 H         1 UNK         0.0822 
    119 H119      -79.7458   27.6211  -78.0078 H         1 UNK         0.0807 
    120 H120      -81.3322   26.9113  -77.8008 H         1 UNK         0.0807 
    121 H121      -79.9824   25.9086  -78.3270 H         1 UNK         0.0807 
    122 H122      -79.8207   24.4407  -75.4860 H         1 UNK         0.2946 
    123 H123      -83.2142   23.3532  -75.0828 H         1 UNK         0.1144 
    124 H124      -82.0236   22.4655  -77.0962 H         1 UNK         0.0793 
    125 H125      -81.9308   21.3487  -75.7454 H         1 UNK         0.0793 
    126 H126      -80.5317   22.3276  -76.1763 H         1 UNK         0.0793 
    127 H127      -80.6405   22.8263  -73.7534 H         1 UNK         0.2896 
@<TRIPOS>BOND
     1    1    2 1    
     2    1   67 1    
     3    1   68 1    
     4    1   69 1    
     5    2    3 2    
     6    2    4 am   BACKBONE|DICT|INTERRES
     7    4    5 1    
     8    4   70 1    
     9    5    6 1    
    10    5   65 1    
    11    5   71 1    
    12    6    7 1    
    13    6   72 1    
    14    6   73 1    
    15    7    8 1    
    16    8    9 1    
    17    8   74 1    
    18    8   75 1    
    19    9   10 ar   
    20    9   14 ar   
    21   10   11 ar   
    22   10   76 1    
    23   11   12 ar   
    24   11   48 1    
    25   12   13 ar   
    26   12   77 1    
    27   13   14 ar   
    28   13   15 1    
    29   14   78 1    
    30   15   16 1    
    31   15   79 1    
    32   15   80 1    
    33   16   17 1    
    34   17   18 1    
    35   17   81 1    
    36   17   82 1    
    37   18   19 1    
    38   18   22 1    
    39   18   83 1    
    40   19   20 am   BACKBONE|DICT|INTERRES
    41   19   21 2    
    42   20   84 1    
    43   20   85 1    
    44   22   23 am   BACKBONE|DICT|INTERRES
    45   22   86 1    
    46   23   24 2    
    47   23   25 1    
    48   25   26 1    
    49   25   27 1    
    50   25   87 1    
    51   26   88 1    
    52   26   89 1    
    53   26   90 1    
    54   27   28 am   BACKBONE|DICT|INTERRES
    55   27   91 1    
    56   28   29 2    
    57   28   30 1    
    58   30   31 1    
    59   30   32 1    
    60   30   92 1    
    61   31   93 1    
    62   31   94 1    
    63   31   95 1    
    64   32   33 am   BACKBONE|DICT|INTERRES
    65   32   96 1    
    66   33   34 2    
    67   33   35 1    
    68   35   36 1    
    69   35   37 1    
    70   35   97 1    
    71   36   98 1    
    72   36   99 1    
    73   36  100 1    
    74   37   38 am   BACKBONE|DICT|INTERRES
    75   37  101 1    
    76   38   39 2    
    77   38   40 1    
    78   40   41 1    
    79   40   42 1    
    80   40  102 1    
    81   41  103 1    
    82   41  104 1    
    83   41  105 1    
    84   42   43 am   BACKBONE|DICT|INTERRES
    85   42  106 1    
    86   43   44 2    
    87   43   45 1    
    88   45   46 1    
    89   45   49 1    
    90   45  107 1    
    91   46   47 1    
    92   46  108 1    
    93   46  109 1    
    94   47   48 1    
    95   48  110 1    
    96   48  111 1    
    97   49   50 am   BACKBONE|DICT|INTERRES
    98   49  112 1    
    99   50   51 2    
   100   50   52 1    
   101   52   53 1    
   102   52   54 1    
   103   52  113 1    
   104   53  114 1    
   105   53  115 1    
   106   53  116 1    
   107   54   55 am   BACKBONE|DICT|INTERRES
   108   54  117 1    
   109   55   56 2    
   110   55   57 1    
   111   57   58 1    
   112   57   59 1    
   113   57  118 1    
   114   58  119 1    
   115   58  120 1    
   116   58  121 1    
   117   59   60 am   BACKBONE|DICT|INTERRES
   118   59  122 1    
   119   60   61 2    
   120   60   62 1    
   121   62   63 1    
   122   62   64 1    
   123   62  123 1    
   124   63  124 1    
   125   63  125 1    
   126   63  126 1    
   127   64   65 am   BACKBONE|DICT|INTERRES
   128   64  127 1    
   129   65   66 2    
@<TRIPOS>SUBSTRUCTURE
     1 UNK         1 GROUP             0       ****    0 ROOT    
