@<TRIPOS>MOLECULE
3R135
127   129    1
SMALL
USER_CHARGES


@<TRIPOS>ATOM
      1 CA        -77.8845   30.4581  -75.8469 C.3       0 UNK        -0.1998 
      2 C         -78.4054   29.4123  -74.8729 C.2       0 UNK         0.4909 
      3 O         -77.7234   28.4219  -74.6234 O.2       0 UNK        -0.5240 
      4 N         -79.6042   29.6277  -74.3166 N.am      1 UNK        -0.4739 
      5 CA        -80.2897   28.6669  -73.4487 C.3       1 UNK         0.0864 
      6 C6        -81.3411   29.3765  -72.5583 C.3       11 UNK        -0.0881 
      7 S7        -81.9034   28.3468  -71.1585 S.3       11 UNK        -0.2682 
      8 C8        -80.8743   28.9691  -69.7886 C.3       11 UNK         0.0289 
      9 C9        -79.3969   28.6866  -70.0185 C.ar      11 UNK        -0.0687 
     10 C10       -78.9203   27.3728  -69.9756 C.ar      11 UNK        -0.0823 
     11 C11       -77.5745   27.0972  -70.2320 C.ar      11 UNK        -0.0830 
     12 C12       -76.6985   28.1522  -70.5076 C.ar      11 UNK        -0.1021 
     13 C13       -77.1586   29.4722  -70.5412 C.ar      11 UNK        -0.0753 
     14 C14       -78.5099   29.7329  -70.2923 C.ar      11 UNK        -0.0933 
     15 C15       -76.1978   30.6147  -70.8456 C.3       11 UNK         0.0166 
     16 S16       -76.5432   31.3530  -72.4715 S.3       11 UNK        -0.2615 
     17 C17       -75.0834   32.4159  -72.7358 C.3       11 UNK        -0.0865 
     18 CA        -74.1649   31.8653  -73.8584 C.3       10 UNK         0.0862 
     19 C         -73.0833   32.9048  -74.2504 C.2       10 UNK         0.5551 
     20 N         -73.3634   33.7508  -75.2318 N.am      10 UNK        -0.7319 
     21 O         -72.0137   32.9782  -73.6476 O.2       10 UNK        -0.5018 
     22 N         -73.5493   30.5913  -73.4672 N.am      10 UNK        -0.4509 
     23 C         -73.2405   29.5948  -74.3032 C.2       10 UNK         0.4899 
     24 O         -73.4939   29.6003  -75.5101 O.2       10 UNK        -0.4839 
     25 CA        -72.5438   28.3876  -73.6510 C.3       9 UNK         0.0222 
     26 CB        -73.4407   27.7528  -72.5729 C.3       9 UNK        -0.1966 
     27 N         -72.1979   27.3569  -74.6310 N.am      9 UNK        -0.4218 
     28 C         -71.0521   27.3082  -75.3212 C.2       9 UNK         0.5020 
     29 O         -70.1642   28.1570  -75.2211 O.2       9 UNK        -0.5274 
     30 CA        -70.8167   26.1064  -76.2518 C.3       8 UNK         0.0270 
     31 CB        -70.1042   24.9703  -75.4948 C.3       8 UNK        -0.1976 
     32 N         -72.0324   25.5886  -76.8918 N.am      8 UNK        -0.4313 
     33 C         -72.0522   25.0345  -78.1150 C.2       8 UNK         0.5041 
     34 O         -71.0514   24.9219  -78.8254 O.2       8 UNK        -0.5577 
     35 CA        -73.3933   24.4960  -78.6566 C.3       7 UNK         0.0284 
     36 CB        -73.4621   22.9686  -78.4939 C.3       7 UNK        -0.1958 
     37 N         -74.5722   25.0853  -78.0263 N.am      7 UNK        -0.4454 
     38 C         -74.9333   26.3720  -78.0972 C.2       7 UNK         0.5089 
     39 O         -74.3769   27.1993  -78.8196 O.2       7 UNK        -0.5125 
     40 CA        -76.0942   26.8194  -77.1911 C.3       6 UNK         0.0408 
     41 CB        -77.3691   27.0289  -78.0236 C.3       6 UNK        -0.1791 
     42 N         -76.4057   25.9172  -76.0750 N.am      6 UNK        -0.4762 
     43 C         -75.5741   25.5194  -75.1003 C.2       6 UNK         0.5007 
     44 O         -74.3639   25.7469  -75.0910 O.2       6 UNK        -0.5032 
     45 CA        -76.1967   24.6783  -73.9743 C.3       5 UNK         0.0783 
     46 C46       -77.0537   25.5720  -73.0457 C.3       11 UNK        -0.0857 
     47 S47       -77.7315   24.6817  -71.6072 S.3       11 UNK        -0.2512 
     48 C48       -77.0688   25.6594  -70.2173 C.3       11 UNK         0.0225 
     49 N         -76.9584   23.5711  -74.5541 N.am      5 UNK        -0.4615 
     50 C         -76.4161   22.4489  -75.0445 C.2       4 UNK         0.5053 
     51 O         -75.2127   22.1953  -74.9964 O.2       4 UNK        -0.5105 
     52 CA        -77.3696   21.4355  -75.7040 C.3       4 UNK         0.0263 
     53 CB        -77.8223   20.3834  -74.6788 C.3       4 UNK        -0.1981 
     54 N         -78.5497   22.0614  -76.3052 N.am      4 UNK        -0.4224 
     55 C         -78.5322   22.8124  -77.4161 C.2       3 UNK         0.4895 
     56 O         -77.5268   23.0031  -78.1010 O.2       3 UNK        -0.5091 
     57 CA        -79.8566   23.4998  -77.8046 C.3       3 UNK         0.0250 
     58 CB        -80.6917   22.5850  -78.7146 C.3       3 UNK        -0.1996 
     59 N         -80.6713   23.9288  -76.6569 N.am      3 UNK        -0.4254 
     60 C         -80.2527   24.7830  -75.7127 C.2       2 UNK         0.5004 
     61 O         -79.1199   25.2648  -75.6996 O.2       2 UNK        -0.5226 
     62 CA        -81.2253   25.0947  -74.5617 C.3       2 UNK         0.0269 
     63 CB        -81.2774   23.9170  -73.5738 C.3       2 UNK        -0.1926 
     64 N         -80.8204   26.2977  -73.8283 N.am      2 UNK        -0.4687 
     65 C         -80.9112   27.5450  -74.3076 C.2       1 UNK         0.5165 
     66 O         -81.4745   27.8293  -75.3692 O.2       1 UNK        -0.5079 
     67 H67       -78.4690   31.3770  -75.8087 H         1 UNK         0.0900 
     68 H68       -77.9156   30.0703  -76.8645 H         1 UNK         0.0900 
     69 H69       -76.8503   30.7045  -75.6092 H         1 UNK         0.0900 
     70 H70       -80.1384   30.4421  -74.5822 H         1 UNK         0.2959 
     71 H71       -79.5331   28.2207  -72.7988 H         1 UNK         0.1079 
     72 H72       -80.9252   30.3017  -72.1559 H         1 UNK         0.0837 
     73 H73       -82.2111   29.6764  -73.1459 H         1 UNK         0.0837 
     74 H74       -81.0542   30.0371  -69.6564 H         1 UNK         0.0685 
     75 H75       -81.1910   28.4881  -68.8621 H         1 UNK         0.0685 
     76 H76       -79.6042   26.5605  -69.7690 H         1 UNK         0.1434 
     77 H77       -75.6567   27.9434  -70.7010 H         1 UNK         0.1329 
     78 H78       -78.8704   30.7518  -70.3299 H         1 UNK         0.1335 
     79 H79       -76.2835   31.3813  -70.0742 H         1 UNK         0.0680 
     80 H80       -75.1660   30.2616  -70.8222 H         1 UNK         0.0680 
     81 H81       -74.5314   32.5427  -71.8026 H         1 UNK         0.1032 
     82 H82       -75.4541   33.4081  -73.0009 H         1 UNK         0.1032 
     83 H83       -74.7876   31.6924  -74.7386 H         1 UNK         0.0461 
     84 H84       -74.2412   33.7052  -75.7258 H         1 UNK         0.3453 
     85 H85       -72.6792   34.4444  -75.4912 H         1 UNK         0.3453 
     86 H86       -73.2590   30.5248  -72.5037 H         1 UNK         0.2984 
     87 H87       -71.6305   28.7425  -73.1687 H         1 UNK         0.0554 
     88 H88       -73.0238   26.8160  -72.2026 H         1 UNK         0.0847 
     89 H89       -74.4398   27.5483  -72.9572 H         1 UNK         0.0847 
     90 H90       -73.5494   28.4141  -71.7135 H         1 UNK         0.0847 
     91 H91       -72.9247   26.6637  -74.7988 H         1 UNK         0.3141 
     92 H92       -70.1403   26.4680  -77.0296 H         1 UNK         0.0743 
     93 H93       -70.7459   24.5362  -74.7271 H         1 UNK         0.0784 
     94 H94       -69.8026   24.1704  -76.1712 H         1 UNK         0.0784 
     95 H95       -69.2012   25.3327  -75.0014 H         1 UNK         0.0784 
     96 H96       -72.9018   25.6489  -76.3695 H         1 UNK         0.3213 
     97 H97       -73.4329   24.7325  -79.7220 H         1 UNK         0.0855 
     98 H98       -73.4440   22.6742  -77.4433 H         1 UNK         0.0814 
     99 H99       -72.6159   22.4845  -78.9835 H         1 UNK         0.0814 
    100 H100      -74.3701   22.5618  -78.9400 H         1 UNK         0.0814 
    101 H101      -75.1168   24.4852  -77.4226 H         1 UNK         0.3105 
    102 H102      -75.8082   27.7780  -76.7534 H         1 UNK         0.0547 
    103 H103      -77.1998   27.7444  -78.8292 H         1 UNK         0.0837 
    104 H104      -77.7068   26.0962  -78.4767 H         1 UNK         0.0837 
    105 H105      -78.1834   27.4161  -77.4106 H         1 UNK         0.0837 
    106 H106      -77.3923   25.6806  -75.9677 H         1 UNK         0.3020 
    107 H107      -75.3757   24.2656  -73.3832 H         1 UNK         0.1245 
    108 H108      -77.8935   26.0078  -73.5855 H         1 UNK         0.0781 
    109 H109      -76.4633   26.4197  -72.6995 H         1 UNK         0.0781 
    110 H110      -75.9784   25.6278  -70.2456 H         1 UNK         0.0836 
    111 H111      -77.3633   25.1854  -69.2799 H         1 UNK         0.0836 
    112 H112      -77.9437   23.7458  -74.6962 H         1 UNK         0.3022 
    113 H113      -76.8136   20.9267  -76.4946 H         1 UNK         0.0747 
    114 H114      -78.4408   19.6156  -75.1440 H         1 UNK         0.0793 
    115 H115      -76.9635   19.8791  -74.2333 H         1 UNK         0.0793 
    116 H116      -78.3949   20.8310  -73.8652 H         1 UNK         0.0793 
    117 H117      -79.4258   21.9516  -75.8160 H         1 UNK         0.3047 
    118 H118      -79.5979   24.3970  -78.3709 H         1 UNK         0.0822 
    119 H119      -81.5797   23.0970  -79.0858 H         1 UNK         0.0807 
    120 H120      -81.0158   21.6825  -78.1946 H         1 UNK         0.0807 
    121 H121      -80.1150   22.2698  -79.5855 H         1 UNK         0.0807 
    122 H122      -81.6092   23.5571  -76.6023 H         1 UNK         0.2946 
    123 H123      -82.2201   25.2594  -74.9821 H         1 UNK         0.1144 
    124 H124      -80.2962   23.7026  -73.1477 H         1 UNK         0.0793 
    125 H125      -81.6281   23.0061  -74.0604 H         1 UNK         0.0793 
    126 H126      -81.9608   24.1222  -72.7495 H         1 UNK         0.0793 
    127 H127      -80.3362   26.1484  -72.9550 H         1 UNK         0.2896 
@<TRIPOS>BOND
     1    1    2 1    
     2    1   67 1    
     3    1   68 1    
     4    1   69 1    
     5    2    3 2    
     6    2    4 am   BACKBONE|DICT|INTERRES
     7    4    5 1    
     8    4   70 1    
     9    5    6 1    
    10    5   65 1    
    11    5   71 1    
    12    6    7 1    
    13    6   72 1    
    14    6   73 1    
    15    7    8 1    
    16    8    9 1    
    17    8   74 1    
    18    8   75 1    
    19    9   10 ar   
    20    9   14 ar   
    21   10   11 ar   
    22   10   76 1    
    23   11   12 ar   
    24   11   48 1    
    25   12   13 ar   
    26   12   77 1    
    27   13   14 ar   
    28   13   15 1    
    29   14   78 1    
    30   15   16 1    
    31   15   79 1    
    32   15   80 1    
    33   16   17 1    
    34   17   18 1    
    35   17   81 1    
    36   17   82 1    
    37   18   19 1    
    38   18   22 1    
    39   18   83 1    
    40   19   20 am   BACKBONE|DICT|INTERRES
    41   19   21 2    
    42   20   84 1    
    43   20   85 1    
    44   22   23 am   BACKBONE|DICT|INTERRES
    45   22   86 1    
    46   23   24 2    
    47   23   25 1    
    48   25   26 1    
    49   25   27 1    
    50   25   87 1    
    51   26   88 1    
    52   26   89 1    
    53   26   90 1    
    54   27   28 am   BACKBONE|DICT|INTERRES
    55   27   91 1    
    56   28   29 2    
    57   28   30 1    
    58   30   31 1    
    59   30   32 1    
    60   30   92 1    
    61   31   93 1    
    62   31   94 1    
    63   31   95 1    
    64   32   33 am   BACKBONE|DICT|INTERRES
    65   32   96 1    
    66   33   34 2    
    67   33   35 1    
    68   35   36 1    
    69   35   37 1    
    70   35   97 1    
    71   36   98 1    
    72   36   99 1    
    73   36  100 1    
    74   37   38 am   BACKBONE|DICT|INTERRES
    75   37  101 1    
    76   38   39 2    
    77   38   40 1    
    78   40   41 1    
    79   40   42 1    
    80   40  102 1    
    81   41  103 1    
    82   41  104 1    
    83   41  105 1    
    84   42   43 am   BACKBONE|DICT|INTERRES
    85   42  106 1    
    86   43   44 2    
    87   43   45 1    
    88   45   46 1    
    89   45   49 1    
    90   45  107 1    
    91   46   47 1    
    92   46  108 1    
    93   46  109 1    
    94   47   48 1    
    95   48  110 1    
    96   48  111 1    
    97   49   50 am   BACKBONE|DICT|INTERRES
    98   49  112 1    
    99   50   51 2    
   100   50   52 1    
   101   52   53 1    
   102   52   54 1    
   103   52  113 1    
   104   53  114 1    
   105   53  115 1    
   106   53  116 1    
   107   54   55 am   BACKBONE|DICT|INTERRES
   108   54  117 1    
   109   55   56 2    
   110   55   57 1    
   111   57   58 1    
   112   57   59 1    
   113   57  118 1    
   114   58  119 1    
   115   58  120 1    
   116   58  121 1    
   117   59   60 am   BACKBONE|DICT|INTERRES
   118   59  122 1    
   119   60   61 2    
   120   60   62 1    
   121   62   63 1    
   122   62   64 1    
   123   62  123 1    
   124   63  124 1    
   125   63  125 1    
   126   63  126 1    
   127   64   65 am   BACKBONE|DICT|INTERRES
   128   64  127 1    
   129   65   66 2    
@<TRIPOS>SUBSTRUCTURE
     1 UNK         1 GROUP             0       ****    0 ROOT    
