@<TRIPOS>MOLECULE
3R135
127   129    1
SMALL
USER_CHARGES


@<TRIPOS>ATOM
      1 CA        -85.6678   29.2787  -74.9541 C.3       0 UNK        -0.1998 
      2 C         -84.2328   29.0698  -75.4139 C.2       0 UNK         0.4909 
      3 O         -83.8529   29.5582  -76.4786 O.2       0 UNK        -0.5240 
      4 N         -83.4323   28.3456  -74.6204 N.am      1 UNK        -0.4739 
      5 CA        -82.0165   28.0558  -74.8971 C.3       1 UNK         0.0864 
      6 C6        -81.2436   27.6355  -73.6188 C.3       11 UNK        -0.0881 
      7 S7        -81.4282   28.8303  -72.2523 S.3       11 UNK        -0.2682 
      8 C8        -79.9762   29.9087  -72.5030 C.3       11 UNK         0.0289 
      9 C9        -78.6301   29.3196  -72.0753 C.ar      11 UNK        -0.0687 
     10 C10       -78.5208   28.3220  -71.0971 C.ar      11 UNK        -0.0823 
     11 C11       -77.2684   27.8476  -70.6947 C.ar      11 UNK        -0.0830 
     12 C12       -76.1157   28.3908  -71.2690 C.ar      11 UNK        -0.1021 
     13 C13       -76.2017   29.3872  -72.2466 C.ar      11 UNK        -0.0753 
     14 C14       -77.4633   29.8402  -72.6442 C.ar      11 UNK        -0.0933 
     15 C15       -74.9511   29.9666  -72.9039 C.3       11 UNK         0.0166 
     16 S16       -73.6479   30.4340  -71.7173 S.3       11 UNK        -0.2615 
     17 C17       -72.5462   28.9774  -71.8029 C.3       11 UNK        -0.0865 
     18 CA        -71.3260   29.1801  -72.7434 C.3       10 UNK         0.0862 
     19 C         -70.2880   28.0397  -72.5525 C.2       10 UNK         0.5551 
     20 N         -70.0788   27.1383  -73.5035 N.am      10 UNK        -0.7319 
     21 O         -69.6365   27.9828  -71.5122 O.2       10 UNK        -0.5018 
     22 N         -71.7275   29.3854  -74.1473 N.am      10 UNK        -0.4509 
     23 C         -71.7487   30.5737  -74.7695 C.2       10 UNK         0.4899 
     24 O         -71.4146   31.6344  -74.2379 O.2       10 UNK        -0.4839 
     25 CA        -72.2359   30.5812  -76.2337 C.3       9 UNK         0.0222 
     26 CB        -71.9664   31.9171  -76.9596 C.3       9 UNK        -0.1966 
     27 N         -71.7191   29.4507  -77.0092 N.am      9 UNK        -0.4218 
     28 C         -70.4326   29.1321  -77.2296 C.2       9 UNK         0.5020 
     29 O         -69.4848   29.8480  -76.9014 O.2       9 UNK        -0.5274 
     30 CA        -70.1476   27.7835  -77.9300 C.3       8 UNK         0.0270 
     31 CB        -68.8951   27.0887  -77.3537 C.3       8 UNK        -0.1976 
     32 N         -71.2827   26.8466  -77.9522 N.am      8 UNK        -0.4313 
     33 C         -71.9535   26.3598  -76.8983 C.2       8 UNK         0.5041 
     34 O         -71.7008   26.6464  -75.7247 O.2       8 UNK        -0.5577 
     35 CA        -73.1332   25.4287  -77.2223 C.3       7 UNK         0.0284 
     36 CB        -72.7144   23.9609  -77.0528 C.3       7 UNK        -0.1958 
     37 N         -74.3077   25.7069  -76.3899 N.am      7 UNK        -0.4454 
     38 C         -74.9426   26.8885  -76.3238 C.2       7 UNK         0.5089 
     39 O         -74.6124   27.8728  -76.9895 O.2       7 UNK        -0.5125 
     40 CA        -76.1567   27.0105  -75.3812 C.3       6 UNK         0.0408 
     41 CB        -77.4426   27.2762  -76.1772 C.3       6 UNK        -0.1791 
     42 N         -76.3683   25.8563  -74.5044 N.am      6 UNK        -0.4762 
     43 C         -75.6120   25.5624  -73.4344 C.2       6 UNK         0.5007 
     44 O         -74.6220   26.2139  -73.1051 O.2       6 UNK        -0.5032 
     45 CA        -75.9924   24.2997  -72.6264 C.3       5 UNK         0.0783 
     46 C46       -76.9439   24.6326  -71.4480 C.3       11 UNK        -0.0857 
     47 S47       -76.0728   25.3875  -70.0346 S.3       11 UNK        -0.2512 
     48 C48       -77.1699   26.7824  -69.6061 C.3       11 UNK         0.0225 
     49 N         -76.5587   23.2395  -73.4666 N.am      5 UNK        -0.4615 
     50 C         -75.9454   22.6569  -74.5060 C.2       4 UNK         0.5053 
     51 O         -74.7822   22.8937  -74.8267 O.2       4 UNK        -0.5105 
     52 CA        -76.7712   21.6729  -75.3565 C.3       4 UNK         0.0263 
     53 CB        -76.3711   20.2238  -75.0353 C.3       4 UNK        -0.1981 
     54 N         -78.2279   21.8121  -75.2216 N.am      4 UNK        -0.4224 
     55 C         -78.9365   22.9103  -75.5192 C.2       3 UNK         0.4895 
     56 O         -78.4378   23.9722  -75.9013 O.2       3 UNK        -0.5091 
     57 CA        -80.4478   22.8171  -75.2918 C.3       3 UNK         0.0250 
     58 CB        -80.7860   22.9773  -73.7973 C.3       3 UNK        -0.1996 
     59 N         -81.1104   23.8683  -76.0559 N.am      3 UNK        -0.4254 
     60 C         -82.3623   23.8245  -76.5219 C.2       2 UNK         0.5004 
     61 O         -83.1153   22.8609  -76.3660 O.2       2 UNK        -0.5226 
     62 CA        -82.8646   25.0923  -77.2378 C.3       2 UNK         0.0269 
     63 CB        -84.2715   24.9201  -77.8414 C.3       2 UNK        -0.1926 
     64 N         -82.8856   26.2233  -76.3080 N.am      2 UNK        -0.4687 
     65 C         -81.8304   26.9905  -75.9994 C.2       1 UNK         0.5165 
     66 O         -80.7280   26.8556  -76.5300 O.2       1 UNK        -0.5079 
     67 H67       -85.8780   30.3434  -74.8540 H         1 UNK         0.0900 
     68 H68       -85.8614   28.8035  -73.9923 H         1 UNK         0.0900 
     69 H69       -86.3604   28.8614  -75.6847 H         1 UNK         0.0900 
     70 H70       -83.7861   27.9913  -73.7424 H         1 UNK         0.2959 
     71 H71       -81.5572   28.9715  -75.2767 H         1 UNK         0.1079 
     72 H72       -80.1807   27.5042  -73.8330 H         1 UNK         0.0837 
     73 H73       -81.5980   26.6668  -73.2603 H         1 UNK         0.0837 
     74 H74       -80.1358   30.8265  -71.9358 H         1 UNK         0.0685 
     75 H75       -79.9405   30.2006  -73.5539 H         1 UNK         0.0685 
     76 H76       -79.4099   27.9222  -70.6307 H         1 UNK         0.1434 
     77 H77       -75.1478   28.0271  -70.9562 H         1 UNK         0.1329 
     78 H78       -77.5390   30.6138  -73.3962 H         1 UNK         0.1335 
     79 H79       -75.2064   30.8588  -73.4776 H         1 UNK         0.0680 
     80 H80       -74.5551   29.2503  -73.6232 H         1 UNK         0.0680 
     81 H81       -73.1113   28.0954  -72.1061 H         1 UNK         0.1032 
     82 H82       -72.2104   28.7765  -70.7837 H         1 UNK         0.1032 
     83 H83       -70.8018   30.0731  -72.3979 H         1 UNK         0.0461 
     84 H84       -69.3889   26.4232  -73.3420 H         1 UNK         0.3453 
     85 H85       -70.6553   27.0882  -74.3417 H         1 UNK         0.3453 
     86 H86       -71.9589   28.5481  -74.6694 H         1 UNK         0.2984 
     87 H87       -73.3176   30.4454  -76.1895 H         1 UNK         0.0554 
     88 H88       -72.3421   31.8962  -77.9824 H         1 UNK         0.0847 
     89 H89       -70.9020   32.1509  -76.9974 H         1 UNK         0.0847 
     90 H90       -72.4620   32.7448  -76.4509 H         1 UNK         0.0847 
     91 H91       -72.4202   28.7817  -77.3030 H         1 UNK         0.3141 
     92 H92       -69.9381   28.0297  -78.9720 H         1 UNK         0.0743 
     93 H93       -69.0083   26.8684  -76.2918 H         1 UNK         0.0784 
     94 H94       -68.6878   26.1515  -77.8700 H         1 UNK         0.0784 
     95 H95       -68.0103   27.7172  -77.4617 H         1 UNK         0.0784 
     96 H96       -71.5865   26.5665  -78.8755 H         1 UNK         0.3213 
     97 H97       -73.4322   25.5846  -78.2608 H         1 UNK         0.0855 
     98 H98       -72.4248   23.7441  -76.0236 H         1 UNK         0.0814 
     99 H99       -71.8616   23.7197  -77.6887 H         1 UNK         0.0814 
    100 H100      -73.5229   23.2816  -77.3239 H         1 UNK         0.0814 
    101 H101      -74.6117   24.9634  -75.7741 H         1 UNK         0.3105 
    102 H102      -75.9820   27.8812  -74.7503 H         1 UNK         0.0547 
    103 H103      -77.3392   28.1567  -76.8124 H         1 UNK         0.0837 
    104 H104      -77.7010   26.4366  -76.8234 H         1 UNK         0.0837 
    105 H105      -78.2852   27.4596  -75.5113 H         1 UNK         0.0837 
    106 H106      -77.1258   25.2314  -74.7596 H         1 UNK         0.3020 
    107 H107      -75.0619   23.8986  -72.2176 H         1 UNK         0.1245 
    108 H108      -77.4054   23.7194  -71.0687 H         1 UNK         0.0781 
    109 H109      -77.7700   25.2666  -71.7767 H         1 UNK         0.0781 
    110 H110      -76.7946   27.2526  -68.6964 H         1 UNK         0.0836 
    111 H111      -78.1559   26.3849  -69.3599 H         1 UNK         0.0836 
    112 H112      -77.5133   22.9764  -73.2755 H         1 UNK         0.3022 
    113 H113      -76.5213   21.8726  -76.4007 H         1 UNK         0.0747 
    114 H114      -76.8663   19.5170  -75.7015 H         1 UNK         0.0793 
    115 H115      -75.2964   20.0790  -75.1561 H         1 UNK         0.0793 
    116 H116      -76.6226   19.9534  -74.0089 H         1 UNK         0.0793 
    117 H117      -78.7237   20.9940  -74.8963 H         1 UNK         0.3047 
    118 H118      -80.7883   21.8415  -75.6462 H         1 UNK         0.0822 
    119 H119      -80.3105   22.2012  -73.1965 H         1 UNK         0.0807 
    120 H120      -81.8598   22.9021  -73.6241 H         1 UNK         0.0807 
    121 H121      -80.4541   23.9422  -73.4110 H         1 UNK         0.0807 
    122 H122      -80.5367   24.6848  -76.2469 H         1 UNK         0.2946 
    123 H123      -82.1722   25.3033  -78.0566 H         1 UNK         0.1144 
    124 H124      -84.2917   24.0946  -78.5544 H         1 UNK         0.0793 
    125 H125      -84.5845   25.8166  -78.3770 H         1 UNK         0.0793 
    126 H126      -85.0191   24.7091  -77.0757 H         1 UNK         0.0793 
    127 H127      -83.7468   26.3826  -75.8056 H         1 UNK         0.2896 
@<TRIPOS>BOND
     1    1    2 1    
     2    1   67 1    
     3    1   68 1    
     4    1   69 1    
     5    2    3 2    
     6    2    4 am   BACKBONE|DICT|INTERRES
     7    4    5 1    
     8    4   70 1    
     9    5    6 1    
    10    5   65 1    
    11    5   71 1    
    12    6    7 1    
    13    6   72 1    
    14    6   73 1    
    15    7    8 1    
    16    8    9 1    
    17    8   74 1    
    18    8   75 1    
    19    9   10 ar   
    20    9   14 ar   
    21   10   11 ar   
    22   10   76 1    
    23   11   12 ar   
    24   11   48 1    
    25   12   13 ar   
    26   12   77 1    
    27   13   14 ar   
    28   13   15 1    
    29   14   78 1    
    30   15   16 1    
    31   15   79 1    
    32   15   80 1    
    33   16   17 1    
    34   17   18 1    
    35   17   81 1    
    36   17   82 1    
    37   18   19 1    
    38   18   22 1    
    39   18   83 1    
    40   19   20 am   BACKBONE|DICT|INTERRES
    41   19   21 2    
    42   20   84 1    
    43   20   85 1    
    44   22   23 am   BACKBONE|DICT|INTERRES
    45   22   86 1    
    46   23   24 2    
    47   23   25 1    
    48   25   26 1    
    49   25   27 1    
    50   25   87 1    
    51   26   88 1    
    52   26   89 1    
    53   26   90 1    
    54   27   28 am   BACKBONE|DICT|INTERRES
    55   27   91 1    
    56   28   29 2    
    57   28   30 1    
    58   30   31 1    
    59   30   32 1    
    60   30   92 1    
    61   31   93 1    
    62   31   94 1    
    63   31   95 1    
    64   32   33 am   BACKBONE|DICT|INTERRES
    65   32   96 1    
    66   33   34 2    
    67   33   35 1    
    68   35   36 1    
    69   35   37 1    
    70   35   97 1    
    71   36   98 1    
    72   36   99 1    
    73   36  100 1    
    74   37   38 am   BACKBONE|DICT|INTERRES
    75   37  101 1    
    76   38   39 2    
    77   38   40 1    
    78   40   41 1    
    79   40   42 1    
    80   40  102 1    
    81   41  103 1    
    82   41  104 1    
    83   41  105 1    
    84   42   43 am   BACKBONE|DICT|INTERRES
    85   42  106 1    
    86   43   44 2    
    87   43   45 1    
    88   45   46 1    
    89   45   49 1    
    90   45  107 1    
    91   46   47 1    
    92   46  108 1    
    93   46  109 1    
    94   47   48 1    
    95   48  110 1    
    96   48  111 1    
    97   49   50 am   BACKBONE|DICT|INTERRES
    98   49  112 1    
    99   50   51 2    
   100   50   52 1    
   101   52   53 1    
   102   52   54 1    
   103   52  113 1    
   104   53  114 1    
   105   53  115 1    
   106   53  116 1    
   107   54   55 am   BACKBONE|DICT|INTERRES
   108   54  117 1    
   109   55   56 2    
   110   55   57 1    
   111   57   58 1    
   112   57   59 1    
   113   57  118 1    
   114   58  119 1    
   115   58  120 1    
   116   58  121 1    
   117   59   60 am   BACKBONE|DICT|INTERRES
   118   59  122 1    
   119   60   61 2    
   120   60   62 1    
   121   62   63 1    
   122   62   64 1    
   123   62  123 1    
   124   63  124 1    
   125   63  125 1    
   126   63  126 1    
   127   64   65 am   BACKBONE|DICT|INTERRES
   128   64  127 1    
   129   65   66 2    
@<TRIPOS>SUBSTRUCTURE
     1 UNK         1 GROUP             0       ****    0 ROOT    
