@<TRIPOS>MOLECULE
3R135
127   129    1
SMALL
USER_CHARGES


@<TRIPOS>ATOM
      1 CA        -85.3490   29.7242  -73.1315 C.3       0 UNK        -0.1998 
      2 C         -84.4451   29.5842  -74.3474 C.2       0 UNK         0.4909 
      3 O         -84.5708   30.3598  -75.2960 O.2       0 UNK        -0.5240 
      4 N         -83.5404   28.6004  -74.3278 N.am      1 UNK        -0.4739 
      5 CA        -82.5918   28.3142  -75.4063 C.3       1 UNK         0.0864 
      6 C6        -81.3870   29.2947  -75.4664 C.3       11 UNK        -0.0881 
      7 S7        -80.5365   29.5582  -73.8688 S.3       11 UNK        -0.2682 
      8 C8        -78.8118   29.2388  -74.3350 C.3       11 UNK         0.0289 
      9 C9        -77.9207   29.1782  -73.1079 C.ar      11 UNK        -0.0687 
     10 C10       -77.7339   27.9591  -72.4561 C.ar      11 UNK        -0.0823 
     11 C11       -76.9217   27.8733  -71.3232 C.ar      11 UNK        -0.0830 
     12 C12       -76.2975   29.0280  -70.8380 C.ar      11 UNK        -0.1021 
     13 C13       -76.4894   30.2598  -71.4734 C.ar      11 UNK        -0.0753 
     14 C14       -77.2968   30.3274  -72.6142 C.ar      11 UNK        -0.0933 
     15 C15       -75.8707   31.5286  -70.9030 C.3       11 UNK         0.0166 
     16 S16       -74.3678   32.0282  -71.7966 S.3       11 UNK        -0.2615 
     17 C17       -73.1051   30.9708  -71.0069 C.3       11 UNK        -0.0865 
     18 CA        -71.7458   31.0177  -71.7652 C.3       10 UNK         0.0862 
     19 C         -70.5850   30.3394  -70.9733 C.2       10 UNK         0.5551 
     20 N         -69.6181   29.7092  -71.6290 N.am      10 UNK        -0.7319 
     21 O         -70.5366   30.4174  -69.7478 O.2       10 UNK        -0.5018 
     22 N         -71.8779   30.6034  -73.1748 N.am      10 UNK        -0.4509 
     23 C         -72.2066   29.3796  -73.6085 C.2       10 UNK         0.4899 
     24 O         -72.3475   28.4055  -72.8662 O.2       10 UNK        -0.4839 
     25 CA        -72.4700   29.2370  -75.1198 C.3       9 UNK         0.0222 
     26 CB        -71.6599   30.2132  -76.0041 C.3       9 UNK        -0.1966 
     27 N         -72.3220   27.8522  -75.5700 N.am      9 UNK        -0.4218 
     28 C         -71.1982   27.1293  -75.6775 C.2       9 UNK         0.5020 
     29 O         -70.0666   27.5622  -75.4520 O.2       9 UNK        -0.5274 
     30 CA        -71.3635   25.6641  -76.1266 C.3       8 UNK         0.0270 
     31 CB        -71.4859   24.7399  -74.9045 C.3       8 UNK        -0.1976 
     32 N         -72.5148   25.4533  -77.0115 N.am      8 UNK        -0.4313 
     33 C         -72.6233   25.9413  -78.2561 C.2       8 UNK         0.5041 
     34 O         -71.7290   26.5642  -78.8299 O.2       8 UNK        -0.5577 
     35 CA        -73.9610   25.7129  -78.9776 C.3       7 UNK         0.0284 
     36 CB        -74.0080   24.3213  -79.6303 C.3       7 UNK        -0.1958 
     37 N         -75.1021   25.8825  -78.0743 N.am      7 UNK        -0.4454 
     38 C         -75.6062   27.0717  -77.7134 C.2       7 UNK         0.5089 
     39 O         -75.1965   28.1488  -78.1460 O.2       7 UNK        -0.5125 
     40 CA        -76.7657   27.0648  -76.6979 C.3       6 UNK         0.0408 
     41 CB        -78.1060   26.9626  -77.4465 C.3       6 UNK        -0.1791 
     42 N         -76.6800   25.9952  -75.6954 N.am      6 UNK        -0.4762 
     43 C         -75.6628   25.8317  -74.8333 C.2       6 UNK         0.5007 
     44 O         -74.7148   26.6096  -74.7594 O.2       6 UNK        -0.5032 
     45 CA        -75.6347   24.5302  -74.0014 C.3       5 UNK         0.0783 
     46 C46       -76.4147   24.6322  -72.6703 C.3       11 UNK        -0.0857 
     47 S47       -75.4726   25.5043  -71.3729 S.3       11 UNK        -0.2512 
     48 C48       -76.7510   26.5447  -70.6013 C.3       11 UNK         0.0225 
     49 N         -76.0747   23.3763  -74.7864 N.am      5 UNK        -0.4615 
     50 C         -75.4662   22.9040  -75.8790 C.2       4 UNK         0.5053 
     51 O         -74.4227   23.3782  -76.3269 O.2       4 UNK        -0.5105 
     52 CA        -76.1594   21.7569  -76.6364 C.3       4 UNK         0.0263 
     53 CB        -75.8373   20.3911  -75.9999 C.3       4 UNK        -0.1981 
     54 N         -77.6071   21.9570  -76.8189 N.am      4 UNK        -0.4224 
     55 C         -78.5730   21.9800  -75.8887 C.2       3 UNK         0.4895 
     56 O         -78.3922   21.7383  -74.6924 O.2       3 UNK        -0.5091 
     57 CA        -79.9763   22.3645  -76.3839 C.3       3 UNK         0.0250 
     58 CB        -80.7819   21.1047  -76.7402 C.3       3 UNK        -0.1996 
     59 N         -80.7271   23.1541  -75.4027 N.am      3 UNK        -0.4254 
     60 C         -80.3541   24.3436  -74.9083 C.2       2 UNK         0.5004 
     61 O         -79.3010   24.9171  -75.1968 O.2       2 UNK        -0.5226 
     62 CA        -81.3206   24.9949  -73.9027 C.3       2 UNK         0.0269 
     63 CB        -80.7551   24.9054  -72.4759 C.3       2 UNK        -0.1926 
     64 N         -81.6281   26.3955  -74.2168 N.am      2 UNK        -0.4687 
     65 C         -82.2052   26.8270  -75.3492 C.2       1 UNK         0.5165 
     66 O         -82.5129   26.0891  -76.2864 O.2       1 UNK        -0.5079 
     67 H67       -86.3924   29.6102  -73.4241 H         1 UNK         0.0900 
     68 H68       -85.2256   30.7105  -72.6850 H         1 UNK         0.0900 
     69 H69       -85.1265   28.9776  -72.3694 H         1 UNK         0.0900 
     70 H70       -83.5006   27.9701  -73.5387 H         1 UNK         0.2959 
     71 H71       -83.1335   28.4289  -76.3487 H         1 UNK         0.1079 
     72 H72       -80.6744   28.9718  -76.2275 H         1 UNK         0.0837 
     73 H73       -81.7405   30.2705  -75.8028 H         1 UNK         0.0837 
     74 H74       -78.7599   28.2886  -74.8649 H         1 UNK         0.0685 
     75 H75       -78.4645   30.0085  -75.0259 H         1 UNK         0.0685 
     76 H76       -78.2351   27.0827  -72.8363 H         1 UNK         0.1434 
     77 H77       -75.6779   28.9716  -69.9535 H         1 UNK         0.1329 
     78 H78       -77.4518   31.2773  -73.1075 H         1 UNK         0.1335 
     79 H79       -75.6458   31.4087  -69.8419 H         1 UNK         0.0680 
     80 H80       -76.5971   32.3402  -70.9662 H         1 UNK         0.0680 
     81 H81       -73.4734   29.9457  -70.9466 H         1 UNK         0.1032 
     82 H82       -72.9863   31.3137  -69.9775 H         1 UNK         0.1032 
     83 H83       -71.4481   32.0659  -71.8106 H         1 UNK         0.0461 
     84 H84       -68.8643   29.2839  -71.1131 H         1 UNK         0.3453 
     85 H85       -69.6546   29.6298  -72.6329 H         1 UNK         0.3453 
     86 H86       -71.7716   31.3417  -73.8545 H         1 UNK         0.2984 
     87 H87       -73.5266   29.4697  -75.2602 H         1 UNK         0.0554 
     88 H88       -71.8139   30.0027  -77.0627 H         1 UNK         0.0847 
     89 H89       -70.5891   30.1516  -75.8069 H         1 UNK         0.0847 
     90 H90       -71.9667   31.2468  -75.8421 H         1 UNK         0.0847 
     91 H91       -73.1991   27.3391  -75.6187 H         1 UNK         0.3141 
     92 H92       -70.4644   25.3836  -76.6792 H         1 UNK         0.0743 
     93 H93       -72.3460   25.0028  -74.2884 H         1 UNK         0.0784 
     94 H94       -71.5889   23.6958  -75.2009 H         1 UNK         0.0784 
     95 H95       -70.6002   24.8139  -74.2722 H         1 UNK         0.0784 
     96 H96       -73.2729   24.8792  -76.6511 H         1 UNK         0.3213 
     97 H97       -74.0372   26.4553  -79.7756 H         1 UNK         0.0855 
     98 H98       -73.9088   23.5193  -78.8989 H         1 UNK         0.0814 
     99 H99       -73.1950   24.2046  -80.3481 H         1 UNK         0.0814 
    100 H100      -74.9412   24.1684  -80.1724 H         1 UNK         0.0814 
    101 H101      -75.4684   25.0503  -77.6350 H         1 UNK         0.3105 
    102 H102      -76.7364   28.0168  -76.1648 H         1 UNK         0.0547 
    103 H103      -78.2075   27.7657  -78.1777 H         1 UNK         0.0837 
    104 H104      -78.1946   26.0182  -77.9848 H         1 UNK         0.0837 
    105 H105      -78.9572   27.0349  -76.7714 H         1 UNK         0.0837 
    106 H106      -77.4759   25.3635  -75.6381 H         1 UNK         0.3020 
    107 H107      -74.5873   24.3394  -73.7584 H         1 UNK         0.1245 
    108 H108      -76.6086   23.6321  -72.2787 H         1 UNK         0.0781 
    109 H109      -77.3983   25.0728  -72.8244 H         1 UNK         0.0781 
    110 H110      -76.4688   26.7221  -69.5623 H         1 UNK         0.0836 
    111 H111      -77.6998   26.0071  -70.5636 H         1 UNK         0.0836 
    112 H112      -76.9412   22.9246  -74.5050 H         1 UNK         0.3022 
    113 H113      -75.7358   21.7517  -77.6421 H         1 UNK         0.0747 
    114 H114      -76.2875   19.5750  -76.5650 H         1 UNK         0.0793 
    115 H115      -74.7605   20.2176  -75.9820 H         1 UNK         0.0793 
    116 H116      -76.1908   20.3212  -74.9709 H         1 UNK         0.0793 
    117 H117      -77.8794   22.1728  -77.7685 H         1 UNK         0.3047 
    118 H118      -79.8734   22.9798  -77.2804 H         1 UNK         0.0822 
    119 H119      -81.7596   21.3596  -77.1499 H         1 UNK         0.0807 
    120 H120      -80.2643   20.5072  -77.4920 H         1 UNK         0.0807 
    121 H121      -80.9377   20.4668  -75.8689 H         1 UNK         0.0807 
    122 H122      -81.5929   22.7481  -75.0801 H         1 UNK         0.2946 
    123 H123      -82.2654   24.4473  -73.9273 H         1 UNK         0.1144 
    124 H124      -80.5251   23.8724  -72.2107 H         1 UNK         0.0793 
    125 H125      -81.4695   25.2760  -71.7406 H         1 UNK         0.0793 
    126 H126      -79.8357   25.4793  -72.3687 H         1 UNK         0.0793 
    127 H127      -81.3631   27.0851  -73.5274 H         1 UNK         0.2896 
@<TRIPOS>BOND
     1    1    2 1    
     2    1   67 1    
     3    1   68 1    
     4    1   69 1    
     5    2    3 2    
     6    2    4 am   BACKBONE|DICT|INTERRES
     7    4    5 1    
     8    4   70 1    
     9    5    6 1    
    10    5   65 1    
    11    5   71 1    
    12    6    7 1    
    13    6   72 1    
    14    6   73 1    
    15    7    8 1    
    16    8    9 1    
    17    8   74 1    
    18    8   75 1    
    19    9   10 ar   
    20    9   14 ar   
    21   10   11 ar   
    22   10   76 1    
    23   11   12 ar   
    24   11   48 1    
    25   12   13 ar   
    26   12   77 1    
    27   13   14 ar   
    28   13   15 1    
    29   14   78 1    
    30   15   16 1    
    31   15   79 1    
    32   15   80 1    
    33   16   17 1    
    34   17   18 1    
    35   17   81 1    
    36   17   82 1    
    37   18   19 1    
    38   18   22 1    
    39   18   83 1    
    40   19   20 am   BACKBONE|DICT|INTERRES
    41   19   21 2    
    42   20   84 1    
    43   20   85 1    
    44   22   23 am   BACKBONE|DICT|INTERRES
    45   22   86 1    
    46   23   24 2    
    47   23   25 1    
    48   25   26 1    
    49   25   27 1    
    50   25   87 1    
    51   26   88 1    
    52   26   89 1    
    53   26   90 1    
    54   27   28 am   BACKBONE|DICT|INTERRES
    55   27   91 1    
    56   28   29 2    
    57   28   30 1    
    58   30   31 1    
    59   30   32 1    
    60   30   92 1    
    61   31   93 1    
    62   31   94 1    
    63   31   95 1    
    64   32   33 am   BACKBONE|DICT|INTERRES
    65   32   96 1    
    66   33   34 2    
    67   33   35 1    
    68   35   36 1    
    69   35   37 1    
    70   35   97 1    
    71   36   98 1    
    72   36   99 1    
    73   36  100 1    
    74   37   38 am   BACKBONE|DICT|INTERRES
    75   37  101 1    
    76   38   39 2    
    77   38   40 1    
    78   40   41 1    
    79   40   42 1    
    80   40  102 1    
    81   41  103 1    
    82   41  104 1    
    83   41  105 1    
    84   42   43 am   BACKBONE|DICT|INTERRES
    85   42  106 1    
    86   43   44 2    
    87   43   45 1    
    88   45   46 1    
    89   45   49 1    
    90   45  107 1    
    91   46   47 1    
    92   46  108 1    
    93   46  109 1    
    94   47   48 1    
    95   48  110 1    
    96   48  111 1    
    97   49   50 am   BACKBONE|DICT|INTERRES
    98   49  112 1    
    99   50   51 2    
   100   50   52 1    
   101   52   53 1    
   102   52   54 1    
   103   52  113 1    
   104   53  114 1    
   105   53  115 1    
   106   53  116 1    
   107   54   55 am   BACKBONE|DICT|INTERRES
   108   54  117 1    
   109   55   56 2    
   110   55   57 1    
   111   57   58 1    
   112   57   59 1    
   113   57  118 1    
   114   58  119 1    
   115   58  120 1    
   116   58  121 1    
   117   59   60 am   BACKBONE|DICT|INTERRES
   118   59  122 1    
   119   60   61 2    
   120   60   62 1    
   121   62   63 1    
   122   62   64 1    
   123   62  123 1    
   124   63  124 1    
   125   63  125 1    
   126   63  126 1    
   127   64   65 am   BACKBONE|DICT|INTERRES
   128   64  127 1    
   129   65   66 2    
@<TRIPOS>SUBSTRUCTURE
     1 UNK         1 GROUP             0       ****    0 ROOT    
