@<TRIPOS>MOLECULE
3R135
127   129    1
SMALL
USER_CHARGES


@<TRIPOS>ATOM
      1 CA        -82.9272   24.5180  -69.8811 C.3       0 UNK        -0.1998 
      2 C         -82.2501   25.2866  -71.0055 C.2       0 UNK         0.4909 
      3 O         -81.1304   24.9457  -71.3863 O.2       0 UNK        -0.5240 
      4 N         -82.9335   26.3037  -71.5508 N.am      1 UNK        -0.4739 
      5 CA        -82.5025   27.2431  -72.6052 C.3       1 UNK         0.0864 
      6 C6        -81.2234   28.0463  -72.2540 C.3       11 UNK        -0.0881 
      7 S7        -81.3509   28.9338  -70.6599 S.3       11 UNK        -0.2682 
      8 C8        -80.2546   30.3709  -70.9261 C.3       11 UNK         0.0289 
      9 C9        -78.9065   29.9952  -71.5330 C.ar      11 UNK        -0.0687 
     10 C10       -78.1451   28.9524  -70.9937 C.ar      11 UNK        -0.0823 
     11 C11       -76.9548   28.5517  -71.6053 C.ar      11 UNK        -0.0830 
     12 C12       -76.5051   29.2329  -72.7395 C.ar      11 UNK        -0.1021 
     13 C13       -77.2292   30.3082  -73.2613 C.ar      11 UNK        -0.0753 
     14 C14       -78.4337   30.6800  -72.6575 C.ar      11 UNK        -0.0933 
     15 C15       -76.7263   31.0377  -74.4987 C.3       11 UNK         0.0166 
     16 S16       -75.0991   31.8126  -74.2145 S.3       11 UNK        -0.2615 
     17 C17       -74.2455   31.5249  -75.8096 C.3       11 UNK        -0.0865 
     18 CA        -72.7602   31.0866  -75.6705 C.3       10 UNK         0.0862 
     19 C         -71.8246   32.2868  -75.3480 C.2       10 UNK         0.5551 
     20 N         -71.5242   33.1164  -76.3384 N.am      10 UNK        -0.7319 
     21 O         -71.3909   32.4897  -74.2148 O.2       10 UNK        -0.5018 
     22 N         -72.6019   29.9663  -74.7317 N.am      10 UNK        -0.4509 
     23 C         -71.5211   29.1794  -74.6521 C.2       10 UNK         0.4899 
     24 O         -70.5813   29.2222  -75.4474 O.2       10 UNK        -0.4839 
     25 CA        -71.4573   28.1878  -73.4802 C.3       9 UNK         0.0222 
     26 CB        -72.3618   28.5679  -72.2902 C.3       9 UNK        -0.1966 
     27 N         -71.8207   26.8551  -73.9555 N.am      9 UNK        -0.4218 
     28 C         -70.9670   25.8427  -74.1533 C.2       9 UNK         0.5020 
     29 O         -69.7549   25.9071  -73.9407 O.2       9 UNK        -0.5274 
     30 CA        -71.5683   24.5202  -74.6595 C.3       8 UNK         0.0270 
     31 CB        -72.2885   23.7771  -73.5217 C.3       8 UNK        -0.1976 
     32 N         -72.4834   24.7040  -75.7879 N.am      8 UNK        -0.4313 
     33 C         -72.1018   25.0543  -77.0250 C.2       8 UNK         0.5041 
     34 O         -70.9281   25.2180  -77.3608 O.2       8 UNK        -0.5577 
     35 CA        -73.2138   25.2533  -78.0699 C.3       7 UNK         0.0284 
     36 CB        -73.6417   23.9066  -78.6750 C.3       7 UNK        -0.1958 
     37 N         -74.3825   25.9398  -77.5188 N.am      7 UNK        -0.4454 
     38 C         -74.3964   27.2239  -77.1376 C.2       7 UNK         0.5089 
     39 O         -73.4587   28.0002  -77.3116 O.2       7 UNK        -0.5125 
     40 CA        -75.6594   27.7252  -76.4171 C.3       6 UNK         0.0408 
     41 CB        -76.6885   28.2644  -77.4225 C.3       6 UNK        -0.1791 
     42 N         -76.2840   26.7108  -75.5648 N.am      6 UNK        -0.4762 
     43 C         -75.7137   26.1887  -74.4687 C.2       6 UNK         0.5007 
     44 O         -74.6037   26.5208  -74.0546 O.2       6 UNK        -0.5032 
     45 CA        -76.4932   25.0717  -73.7521 C.3       5 UNK         0.0783 
     46 C46       -77.5995   25.6483  -72.8284 C.3       11 UNK        -0.0857 
     47 S47       -77.0743   25.8016  -71.0869 S.3       11 UNK        -0.2512 
     48 C48       -76.1582   27.3799  -71.0477 C.3       11 UNK         0.0225 
     49 N         -77.0268   24.1190  -74.7284 N.am      5 UNK        -0.4615 
     50 C         -76.2712   23.2819  -75.4546 C.2       4 UNK         0.5053 
     51 O         -75.0497   23.1916  -75.3351 O.2       4 UNK        -0.5105 
     52 CA        -76.9858   22.4379  -76.5257 C.3       4 UNK         0.0263 
     53 CB        -77.4806   21.1136  -75.9237 C.3       4 UNK        -0.1981 
     54 N         -78.1092   23.1391  -77.1521 N.am      4 UNK        -0.4224 
     55 C         -77.9999   24.2676  -77.8687 C.2       3 UNK         0.4895 
     56 O         -76.9234   24.7855  -78.1601 O.2       3 UNK        -0.5091 
     57 CA        -79.3059   24.9695  -78.2840 C.3       3 UNK         0.0250 
     58 CB        -79.6951   24.5730  -79.7166 C.3       3 UNK        -0.1996 
     59 N         -80.4352   24.7143  -77.3805 N.am      3 UNK        -0.4254 
     60 C         -80.4657   25.0324  -76.0782 C.2       2 UNK         0.5004 
     61 O         -79.5290   25.5721  -75.4829 O.2       2 UNK        -0.5226 
     62 CA        -81.7166   24.5846  -75.3069 C.3       2 UNK         0.0269 
     63 CB        -81.6014   23.0978  -74.9297 C.3       2 UNK        -0.1926 
     64 N         -81.9094   25.3561  -74.0809 N.am      2 UNK        -0.4687 
     65 C         -82.3816   26.6050  -74.0087 C.2       1 UNK         0.5165 
     66 O         -82.7498   27.2454  -74.9950 O.2       1 UNK        -0.5079 
     67 H67       -83.9131   24.9193  -69.6472 H         1 UNK         0.0900 
     68 H68       -83.0436   23.4710  -70.1596 H         1 UNK         0.0900 
     69 H69       -82.3192   24.5653  -68.9780 H         1 UNK         0.0900 
     70 H70       -83.8611   26.4899  -71.1954 H         1 UNK         0.2959 
     71 H71       -83.3168   27.9654  -72.6860 H         1 UNK         0.1079 
     72 H72       -81.0154   28.7747  -73.0405 H         1 UNK         0.0837 
     73 H73       -80.3529   27.3887  -72.2134 H         1 UNK         0.0837 
     74 H74       -80.7774   31.0856  -71.5636 H         1 UNK         0.0685 
     75 H75       -80.0879   30.8714  -69.9715 H         1 UNK         0.0685 
     76 H76       -78.5026   28.4204  -70.1225 H         1 UNK         0.1434 
     77 H77       -75.5883   28.9307  -73.2237 H         1 UNK         0.1329 
     78 H78       -79.0119   31.4937  -73.0733 H         1 UNK         0.1335 
     79 H79       -76.6877   30.3273  -75.3211 H         1 UNK         0.0680 
     80 H80       -77.4282   31.8143  -74.8062 H         1 UNK         0.0680 
     81 H81       -74.7737   30.7588  -76.3760 H         1 UNK         0.1032 
     82 H82       -74.3317   32.4283  -76.4164 H         1 UNK         0.1032 
     83 H83       -72.4495   30.7131  -76.6487 H         1 UNK         0.0461 
     84 H84       -71.8708   32.9635  -77.2726 H         1 UNK         0.3453 
     85 H85       -70.9276   33.9070  -76.1501 H         1 UNK         0.3453 
     86 H86       -73.3076   29.9031  -74.0143 H         1 UNK         0.2984 
     87 H87       -70.4274   28.1956  -73.1175 H         1 UNK         0.0554 
     88 H88       -72.2002   27.8938  -71.4489 H         1 UNK         0.0847 
     89 H89       -73.4191   28.5217  -72.5442 H         1 UNK         0.0847 
     90 H90       -72.1461   29.5775  -71.9371 H         1 UNK         0.0847 
     91 H91       -72.8106   26.7034  -74.1469 H         1 UNK         0.3141 
     92 H92       -70.7430   23.8904  -74.9985 H         1 UNK         0.0743 
     93 H93       -73.1492   24.3352  -73.1520 H         1 UNK         0.0784 
     94 H94       -72.6415   22.7991  -73.8494 H         1 UNK         0.0784 
     95 H95       -71.6182   23.6134  -72.6769 H         1 UNK         0.0784 
     96 H96       -73.4660   24.5204  -75.6140 H         1 UNK         0.3213 
     97 H97       -72.8088   25.8729  -78.8731 H         1 UNK         0.0855 
     98 H98       -74.0501   23.2348  -77.9200 H         1 UNK         0.0814 
     99 H99       -72.7927   23.4004  -79.1363 H         1 UNK         0.0814 
    100 H100      -74.3989   24.0413  -79.4477 H         1 UNK         0.0814 
    101 H101      -75.2458   25.4075  -77.4502 H         1 UNK         0.3105 
    102 H102      -75.3483   28.5418  -75.7654 H         1 UNK         0.0547 
    103 H103      -76.2682   29.0858  -78.0042 H         1 UNK         0.0837 
    104 H104      -77.0040   27.4968  -78.1292 H         1 UNK         0.0837 
    105 H105      -77.5787   28.6434  -76.9205 H         1 UNK         0.0837 
    106 H106      -77.1977   26.3732  -75.8388 H         1 UNK         0.3020 
    107 H107      -75.7749   24.5217  -73.1393 H         1 UNK         0.1245 
    108 H108      -78.4585   24.9749  -72.8125 H         1 UNK         0.0781 
    109 H109      -78.0033   26.5946  -73.1941 H         1 UNK         0.0781 
    110 H110      -75.2181   27.2535  -71.5839 H         1 UNK         0.0836 
    111 H111      -75.8854   27.5993  -70.0147 H         1 UNK         0.0836 
    112 H112      -78.0137   24.2071  -74.9382 H         1 UNK         0.3022 
    113 H113      -76.2581   22.2092  -77.3069 H         1 UNK         0.0747 
    114 H114      -77.9162   20.4685  -76.6870 H         1 UNK         0.0793 
    115 H115      -76.6572   20.5619  -75.4677 H         1 UNK         0.0793 
    116 H116      -78.2325   21.2754  -75.1500 H         1 UNK         0.0793 
    117 H117      -79.0330   22.7743  -76.9742 H         1 UNK         0.3047 
    118 H118      -79.1120   26.0439  -78.2675 H         1 UNK         0.0822 
    119 H119      -80.5613   25.1366  -80.0638 H         1 UNK         0.0807 
    120 H120      -79.9310   23.5108  -79.7931 H         1 UNK         0.0807 
    121 H121      -78.8797   24.7764  -80.4125 H         1 UNK         0.0807 
    122 H122      -81.2391   24.2575  -77.7878 H         1 UNK         0.2946 
    123 H123      -82.5910   24.7259  -75.9466 H         1 UNK         0.1144 
    124 H124      -82.4878   22.7563  -74.3945 H         1 UNK         0.0793 
    125 H125      -80.7354   22.9094  -74.2932 H         1 UNK         0.0793 
    126 H126      -81.5007   22.4692  -75.8153 H         1 UNK         0.0793 
    127 H127      -81.5657   24.9491  -73.2149 H         1 UNK         0.2896 
@<TRIPOS>BOND
     1    1    2 1    
     2    1   67 1    
     3    1   68 1    
     4    1   69 1    
     5    2    3 2    
     6    2    4 am   BACKBONE|DICT|INTERRES
     7    4    5 1    
     8    4   70 1    
     9    5    6 1    
    10    5   65 1    
    11    5   71 1    
    12    6    7 1    
    13    6   72 1    
    14    6   73 1    
    15    7    8 1    
    16    8    9 1    
    17    8   74 1    
    18    8   75 1    
    19    9   10 ar   
    20    9   14 ar   
    21   10   11 ar   
    22   10   76 1    
    23   11   12 ar   
    24   11   48 1    
    25   12   13 ar   
    26   12   77 1    
    27   13   14 ar   
    28   13   15 1    
    29   14   78 1    
    30   15   16 1    
    31   15   79 1    
    32   15   80 1    
    33   16   17 1    
    34   17   18 1    
    35   17   81 1    
    36   17   82 1    
    37   18   19 1    
    38   18   22 1    
    39   18   83 1    
    40   19   20 am   BACKBONE|DICT|INTERRES
    41   19   21 2    
    42   20   84 1    
    43   20   85 1    
    44   22   23 am   BACKBONE|DICT|INTERRES
    45   22   86 1    
    46   23   24 2    
    47   23   25 1    
    48   25   26 1    
    49   25   27 1    
    50   25   87 1    
    51   26   88 1    
    52   26   89 1    
    53   26   90 1    
    54   27   28 am   BACKBONE|DICT|INTERRES
    55   27   91 1    
    56   28   29 2    
    57   28   30 1    
    58   30   31 1    
    59   30   32 1    
    60   30   92 1    
    61   31   93 1    
    62   31   94 1    
    63   31   95 1    
    64   32   33 am   BACKBONE|DICT|INTERRES
    65   32   96 1    
    66   33   34 2    
    67   33   35 1    
    68   35   36 1    
    69   35   37 1    
    70   35   97 1    
    71   36   98 1    
    72   36   99 1    
    73   36  100 1    
    74   37   38 am   BACKBONE|DICT|INTERRES
    75   37  101 1    
    76   38   39 2    
    77   38   40 1    
    78   40   41 1    
    79   40   42 1    
    80   40  102 1    
    81   41  103 1    
    82   41  104 1    
    83   41  105 1    
    84   42   43 am   BACKBONE|DICT|INTERRES
    85   42  106 1    
    86   43   44 2    
    87   43   45 1    
    88   45   46 1    
    89   45   49 1    
    90   45  107 1    
    91   46   47 1    
    92   46  108 1    
    93   46  109 1    
    94   47   48 1    
    95   48  110 1    
    96   48  111 1    
    97   49   50 am   BACKBONE|DICT|INTERRES
    98   49  112 1    
    99   50   51 2    
   100   50   52 1    
   101   52   53 1    
   102   52   54 1    
   103   52  113 1    
   104   53  114 1    
   105   53  115 1    
   106   53  116 1    
   107   54   55 am   BACKBONE|DICT|INTERRES
   108   54  117 1    
   109   55   56 2    
   110   55   57 1    
   111   57   58 1    
   112   57   59 1    
   113   57  118 1    
   114   58  119 1    
   115   58  120 1    
   116   58  121 1    
   117   59   60 am   BACKBONE|DICT|INTERRES
   118   59  122 1    
   119   60   61 2    
   120   60   62 1    
   121   62   63 1    
   122   62   64 1    
   123   62  123 1    
   124   63  124 1    
   125   63  125 1    
   126   63  126 1    
   127   64   65 am   BACKBONE|DICT|INTERRES
   128   64  127 1    
   129   65   66 2    
@<TRIPOS>SUBSTRUCTURE
     1 UNK         1 GROUP             0       ****    0 ROOT    
