@<TRIPOS>MOLECULE
3R135
127   129    1
SMALL
USER_CHARGES


@<TRIPOS>ATOM
      1 CA        -81.5486   27.2638  -69.3374 C.3       0 UNK        -0.1998 
      2 C         -82.3420   27.3969  -70.6289 C.2       0 UNK         0.4909 
      3 O         -83.4337   27.9662  -70.6220 O.2       0 UNK        -0.5240 
      4 N         -81.8027   26.8727  -71.7331 N.am      1 UNK        -0.4739 
      5 CA        -82.4246   26.8314  -73.0547 C.3       1 UNK         0.0864 
      6 C6        -82.4980   28.2212  -73.7581 C.3       11 UNK        -0.0881 
      7 S7        -80.9131   28.8683  -74.3964 S.3       11 UNK        -0.2682 
      8 C8        -80.3758   30.0078  -73.0848 C.3       11 UNK         0.0289 
      9 C9        -78.9436   29.7033  -72.6773 C.ar      11 UNK        -0.0687 
     10 C10       -78.6945   28.7573  -71.6814 C.ar      11 UNK        -0.0823 
     11 C11       -77.3871   28.4367  -71.3126 C.ar      11 UNK        -0.0830 
     12 C12       -76.3206   29.0839  -71.9413 C.ar      11 UNK        -0.1021 
     13 C13       -76.5534   30.0375  -72.9373 C.ar      11 UNK        -0.0753 
     14 C14       -77.8689   30.3455  -73.3014 C.ar      11 UNK        -0.0933 
     15 C15       -75.3788   30.6965  -73.6443 C.3       11 UNK         0.0166 
     16 S16       -74.4477   31.7834  -72.5179 S.3       11 UNK        -0.2615 
     17 C17       -73.1338   32.4851  -73.5833 C.3       11 UNK        -0.0865 
     18 CA        -72.4385   31.4999  -74.5646 C.3       10 UNK         0.0862 
     19 C         -71.3217   32.2251  -75.3727 C.2       10 UNK         0.5551 
     20 N         -70.0578   31.8348  -75.2617 N.am      10 UNK        -0.7319 
     21 O         -71.6114   33.1609  -76.1142 O.2       10 UNK        -0.5018 
     22 N         -72.0176   30.2599  -73.8887 N.am      10 UNK        -0.4509 
     23 C         -71.7757   29.0986  -74.5095 C.2       10 UNK         0.4899 
     24 O         -71.7869   28.9702  -75.7350 O.2       10 UNK        -0.4839 
     25 CA        -71.4681   27.8807  -73.6183 C.3       9 UNK         0.0222 
     26 CB        -72.1357   27.9554  -72.2297 C.3       9 UNK        -0.1966 
     27 N         -71.9400   26.6736  -74.2916 N.am      9 UNK        -0.4218 
     28 C         -71.1700   25.7163  -74.8215 C.2       9 UNK         0.5020 
     29 O         -69.9418   25.6819  -74.7279 O.2       9 UNK        -0.5274 
     30 CA        -71.8986   24.6059  -75.5958 C.3       8 UNK         0.0270 
     31 CB        -72.5088   23.5766  -74.6315 C.3       8 UNK        -0.1976 
     32 N         -72.9440   25.1421  -76.4700 N.am      8 UNK        -0.4313 
     33 C         -72.7144   25.7479  -77.6440 C.2       8 UNK         0.5041 
     34 O         -71.5942   25.8644  -78.1433 O.2       8 UNK        -0.5577 
     35 CA        -73.9285   26.3043  -78.4066 C.3       7 UNK         0.0284 
     36 CB        -74.3235   25.3613  -79.5562 C.3       7 UNK        -0.1958 
     37 N         -75.0821   26.5151  -77.5256 N.am      7 UNK        -0.4454 
     38 C         -75.3928   27.6996  -76.9798 C.2       7 UNK         0.5089 
     39 O         -74.7889   28.7447  -77.2210 O.2       7 UNK        -0.5125 
     40 CA        -76.5801   27.7505  -76.0043 C.3       6 UNK         0.0408 
     41 CB        -77.8707   28.1134  -76.7515 C.3       6 UNK        -0.1791 
     42 N         -76.7895   26.5424  -75.1987 N.am      6 UNK        -0.4762 
     43 C         -75.9151   26.0784  -74.2910 C.2       6 UNK         0.5007 
     44 O         -74.7743   26.5250  -74.1642 O.2       6 UNK        -0.5032 
     45 CA        -76.3519   24.8926  -73.4101 C.3       5 UNK         0.0783 
     46 C46       -77.2262   25.3247  -72.2072 C.3       11 UNK        -0.0857 
     47 S47       -76.1923   25.9574  -70.8395 S.3       11 UNK        -0.2512 
     48 C48       -77.1367   27.3924  -70.2337 C.3       11 UNK         0.0225 
     49 N         -77.0029   23.8715  -74.2294 N.am      5 UNK        -0.4615 
     50 C         -76.5018   22.6460  -74.4391 C.2       4 UNK         0.5053 
     51 O         -75.5303   22.1898  -73.8365 O.2       4 UNK        -0.5105 
     52 CA        -77.1689   21.7734  -75.5199 C.3       4 UNK         0.0263 
     53 CB        -78.1367   20.7698  -74.8721 C.3       4 UNK        -0.1981 
     54 N         -77.8843   22.5235  -76.5551 N.am      4 UNK        -0.4224 
     55 C         -77.3731   23.4921  -77.3294 C.2       3 UNK         0.4895 
     56 O         -76.1986   23.8581  -77.2952 O.2       3 UNK        -0.5091 
     57 CA        -78.3614   24.2352  -78.2437 C.3       3 UNK         0.0250 
     58 CB        -78.3715   23.6044  -79.6445 C.3       3 UNK        -0.1996 
     59 N         -79.7331   24.2924  -77.7180 N.am      3 UNK        -0.4254 
     60 C         -80.0954   24.8141  -76.5351 C.2       2 UNK         0.5004 
     61 O         -79.2927   25.3128  -75.7417 O.2       2 UNK        -0.5226 
     62 CA        -81.5937   24.6971  -76.1940 C.3       2 UNK         0.0269 
     63 CB        -81.9552   23.2471  -75.8069 C.3       2 UNK        -0.1926 
     64 N         -82.0644   25.6477  -75.1751 N.am      2 UNK        -0.4687 
     65 C         -81.7512   25.7062  -73.8713 C.2       1 UNK         0.5165 
     66 O         -80.9981   24.9118  -73.2979 O.2       1 UNK        -0.5079 
     67 H67       -81.2163   28.2446  -68.9982 H         1 UNK         0.0900 
     68 H68       -80.6713   26.6292  -69.4615 H         1 UNK         0.0900 
     69 H69       -82.1717   26.8267  -68.5576 H         1 UNK         0.0900 
     70 H70       -80.9445   26.3365  -71.6892 H         1 UNK         0.2959 
     71 H71       -83.4516   26.4909  -72.9035 H         1 UNK         0.1079 
     72 H72       -83.1839   28.1634  -74.6043 H         1 UNK         0.0837 
     73 H73       -82.9503   28.9594  -73.0950 H         1 UNK         0.0837 
     74 H74       -81.0303   29.9319  -72.2154 H         1 UNK         0.0685 
     75 H75       -80.4602   31.0342  -73.4445 H         1 UNK         0.0685 
     76 H76       -79.5235   28.2627  -71.2006 H         1 UNK         0.1434 
     77 H77       -75.3066   28.8368  -71.6615 H         1 UNK         0.1329 
     78 H78       -78.0583   31.0707  -74.0808 H         1 UNK         0.1335 
     79 H79       -74.7301   29.9095  -74.0292 H         1 UNK         0.0680 
     80 H80       -75.7165   31.2741  -74.5061 H         1 UNK         0.0680 
     81 H81       -72.3912   32.9374  -72.9230 H         1 UNK         0.1032 
     82 H82       -73.5743   33.3141  -74.1409 H         1 UNK         0.1032 
     83 H83       -73.1806   31.2145  -75.3125 H         1 UNK         0.0461 
     84 H84       -69.3435   32.3097  -75.7909 H         1 UNK         0.3453 
     85 H85       -69.8155   31.0631  -74.6616 H         1 UNK         0.3453 
     86 H86       -71.9817   30.2963  -72.8810 H         1 UNK         0.2984 
     87 H87       -70.3861   27.8453  -73.4798 H         1 UNK         0.0554 
     88 H88       -73.2141   28.0935  -72.3114 H         1 UNK         0.0847 
     89 H89       -71.7355   28.7734  -71.6301 H         1 UNK         0.0847 
     90 H90       -71.9659   27.0393  -71.6637 H         1 UNK         0.0847 
     91 H91       -72.9486   26.6199  -74.4236 H         1 UNK         0.3141 
     92 H92       -71.1620   24.0898  -76.2155 H         1 UNK         0.0743 
     93 H93       -73.2454   24.0284  -73.9672 H         1 UNK         0.0784 
     94 H94       -72.9985   22.7661  -75.1720 H         1 UNK         0.0784 
     95 H95       -71.7381   23.1278  -74.0035 H         1 UNK         0.0784 
     96 H96       -73.8942   25.0995  -76.1328 H         1 UNK         0.3213 
     97 H97       -73.6227   27.2536  -78.8520 H         1 UNK         0.0855 
     98 H98       -74.5296   24.3505  -79.2043 H         1 UNK         0.0814 
     99 H99       -73.5177   25.2872  -80.2875 H         1 UNK         0.0814 
    100 H100      -75.2071   25.7220  -80.0829 H         1 UNK         0.0814 
    101 H101      -75.6322   25.6916  -77.2952 H         1 UNK         0.3105 
    102 H102      -76.3750   28.5587  -75.3030 H         1 UNK         0.0547 
    103 H103      -77.7634   29.0625  -77.2782 H         1 UNK         0.0837 
    104 H104      -78.1428   27.3605  -77.4888 H         1 UNK         0.0837 
    105 H105      -78.7052   28.2198  -76.0621 H         1 UNK         0.0837 
    106 H106      -77.7104   26.1138  -75.2756 H         1 UNK         0.3020 
    107 H107      -75.4275   24.4768  -73.0032 H         1 UNK         0.1245 
    108 H108      -77.7741   24.4659  -71.8161 H         1 UNK         0.0781 
    109 H109      -77.9870   26.0475  -72.5067 H         1 UNK         0.0781 
    110 H110      -76.5851   27.8558  -69.4148 H         1 UNK         0.0836 
    111 H111      -78.0755   27.0373  -69.8062 H         1 UNK         0.0836 
    112 H112      -77.8131   24.1694  -74.7614 H         1 UNK         0.3022 
    113 H113      -76.3735   21.2151  -76.0176 H         1 UNK         0.0747 
    114 H114      -78.5425   20.0754  -75.6080 H         1 UNK         0.0793 
    115 H115      -77.6298   20.1728  -74.1125 H         1 UNK         0.0793 
    116 H116      -78.9733   21.2736  -74.3856 H         1 UNK         0.0793 
    117 H117      -78.8653   22.3128  -76.6607 H         1 UNK         0.3047 
    118 H118      -78.0010   25.2596  -78.3408 H         1 UNK         0.0822 
    119 H119      -77.3647   23.5715  -80.0643 H         1 UNK         0.0807 
    120 H120      -78.9879   24.1800  -80.3354 H         1 UNK         0.0807 
    121 H121      -78.7505   22.5818  -79.6262 H         1 UNK         0.0807 
    122 H122      -80.4503   23.8975  -78.3099 H         1 UNK         0.2946 
    123 H123      -82.1449   24.9495  -77.1017 H         1 UNK         0.1144 
    124 H124      -81.7628   22.5581  -76.6300 H         1 UNK         0.0793 
    125 H125      -83.0118   23.1558  -75.5547 H         1 UNK         0.0793 
    126 H126      -81.3761   22.8955  -74.9523 H         1 UNK         0.0793 
    127 H127      -82.6604   26.3806  -75.5332 H         1 UNK         0.2896 
@<TRIPOS>BOND
     1    1    2 1    
     2    1   67 1    
     3    1   68 1    
     4    1   69 1    
     5    2    3 2    
     6    2    4 am   BACKBONE|DICT|INTERRES
     7    4    5 1    
     8    4   70 1    
     9    5    6 1    
    10    5   65 1    
    11    5   71 1    
    12    6    7 1    
    13    6   72 1    
    14    6   73 1    
    15    7    8 1    
    16    8    9 1    
    17    8   74 1    
    18    8   75 1    
    19    9   10 ar   
    20    9   14 ar   
    21   10   11 ar   
    22   10   76 1    
    23   11   12 ar   
    24   11   48 1    
    25   12   13 ar   
    26   12   77 1    
    27   13   14 ar   
    28   13   15 1    
    29   14   78 1    
    30   15   16 1    
    31   15   79 1    
    32   15   80 1    
    33   16   17 1    
    34   17   18 1    
    35   17   81 1    
    36   17   82 1    
    37   18   19 1    
    38   18   22 1    
    39   18   83 1    
    40   19   20 am   BACKBONE|DICT|INTERRES
    41   19   21 2    
    42   20   84 1    
    43   20   85 1    
    44   22   23 am   BACKBONE|DICT|INTERRES
    45   22   86 1    
    46   23   24 2    
    47   23   25 1    
    48   25   26 1    
    49   25   27 1    
    50   25   87 1    
    51   26   88 1    
    52   26   89 1    
    53   26   90 1    
    54   27   28 am   BACKBONE|DICT|INTERRES
    55   27   91 1    
    56   28   29 2    
    57   28   30 1    
    58   30   31 1    
    59   30   32 1    
    60   30   92 1    
    61   31   93 1    
    62   31   94 1    
    63   31   95 1    
    64   32   33 am   BACKBONE|DICT|INTERRES
    65   32   96 1    
    66   33   34 2    
    67   33   35 1    
    68   35   36 1    
    69   35   37 1    
    70   35   97 1    
    71   36   98 1    
    72   36   99 1    
    73   36  100 1    
    74   37   38 am   BACKBONE|DICT|INTERRES
    75   37  101 1    
    76   38   39 2    
    77   38   40 1    
    78   40   41 1    
    79   40   42 1    
    80   40  102 1    
    81   41  103 1    
    82   41  104 1    
    83   41  105 1    
    84   42   43 am   BACKBONE|DICT|INTERRES
    85   42  106 1    
    86   43   44 2    
    87   43   45 1    
    88   45   46 1    
    89   45   49 1    
    90   45  107 1    
    91   46   47 1    
    92   46  108 1    
    93   46  109 1    
    94   47   48 1    
    95   48  110 1    
    96   48  111 1    
    97   49   50 am   BACKBONE|DICT|INTERRES
    98   49  112 1    
    99   50   51 2    
   100   50   52 1    
   101   52   53 1    
   102   52   54 1    
   103   52  113 1    
   104   53  114 1    
   105   53  115 1    
   106   53  116 1    
   107   54   55 am   BACKBONE|DICT|INTERRES
   108   54  117 1    
   109   55   56 2    
   110   55   57 1    
   111   57   58 1    
   112   57   59 1    
   113   57  118 1    
   114   58  119 1    
   115   58  120 1    
   116   58  121 1    
   117   59   60 am   BACKBONE|DICT|INTERRES
   118   59  122 1    
   119   60   61 2    
   120   60   62 1    
   121   62   63 1    
   122   62   64 1    
   123   62  123 1    
   124   63  124 1    
   125   63  125 1    
   126   63  126 1    
   127   64   65 am   BACKBONE|DICT|INTERRES
   128   64  127 1    
   129   65   66 2    
@<TRIPOS>SUBSTRUCTURE
     1 UNK         1 GROUP             0       ****    0 ROOT    
