@<TRIPOS>MOLECULE
3R135
127   129    1
SMALL
USER_CHARGES


@<TRIPOS>ATOM
      1 CA        -84.8863   26.5779  -71.1725 C.3       0 UNK        -0.1998 
      2 C         -84.3337   26.9956  -72.5269 C.2       0 UNK         0.4909 
      3 O         -85.1022   27.1731  -73.4725 O.2       0 UNK        -0.5240 
      4 N         -83.0070   27.1570  -72.6260 N.am      1 UNK        -0.4739 
      5 CA        -82.2975   27.5245  -73.8602 C.3       1 UNK         0.0864 
      6 C6        -80.8491   27.9894  -73.5559 C.3       11 UNK        -0.0881 
      7 S7        -80.2506   29.2566  -74.7245 S.3       11 UNK        -0.2682 
      8 C8        -79.3324   30.3794  -73.6208 C.3       11 UNK         0.0289 
      9 C9        -77.9802   29.8041  -73.2194 C.ar      11 UNK        -0.0687 
     10 C10       -77.8793   28.9179  -72.1424 C.ar      11 UNK        -0.0823 
     11 C11       -76.6418   28.3858  -71.7707 C.ar      11 UNK        -0.0830 
     12 C12       -75.4926   28.7707  -72.4674 C.ar      11 UNK        -0.1021 
     13 C13       -75.5779   29.6553  -73.5468 C.ar      11 UNK        -0.0753 
     14 C14       -76.8249   30.1682  -73.9182 C.ar      11 UNK        -0.0933 
     15 C15       -74.3329   30.0273  -74.3378 C.3       11 UNK         0.0166 
     16 S16       -73.6017   31.5892  -73.7650 S.3       11 UNK        -0.2615 
     17 C17       -72.6080   31.0340  -72.3379 C.3       11 UNK        -0.0865 
     18 CA        -71.0869   31.0475  -72.6397 C.3       10 UNK         0.0862 
     19 C         -70.2577   30.8019  -71.3457 C.2       10 UNK         0.5551 
     20 N         -69.4646   29.7407  -71.2526 N.am      10 UNK        -0.7319 
     21 O         -70.3283   31.5973  -70.4120 O.2       10 UNK        -0.5018 
     22 N         -70.7363   30.1369  -73.7436 N.am      10 UNK        -0.4509 
     23 C         -69.7384   30.3339  -74.6108 C.2       10 UNK         0.4899 
     24 O         -69.0576   31.3600  -74.6381 O.2       10 UNK        -0.4839 
     25 CA        -69.4194   29.2172  -75.6272 C.3       9 UNK         0.0222 
     26 CB        -68.1453   28.4576  -75.2071 C.3       9 UNK        -0.1966 
     27 N         -70.5034   28.2715  -75.9420 N.am      9 UNK        -0.4218 
     28 C         -71.1222   27.3853  -75.1505 C.2       9 UNK         0.5020 
     29 O         -70.9424   27.3156  -73.9332 O.2       9 UNK        -0.5274 
     30 CA        -72.1271   26.4423  -75.8431 C.3       8 UNK         0.0270 
     31 CB        -72.6384   25.3372  -74.8995 C.3       8 UNK        -0.1976 
     32 N         -73.2643   27.1715  -76.4215 N.am      8 UNK        -0.4313 
     33 C         -73.2118   27.8754  -77.5646 C.2       8 UNK         0.5041 
     34 O         -72.1793   27.9708  -78.2328 O.2       8 UNK        -0.5577 
     35 CA        -74.4657   28.6448  -78.0345 C.3       7 UNK         0.0284 
     36 CB        -74.6460   28.5873  -79.5671 C.3       7 UNK        -0.1958 
     37 N         -75.7088   28.2905  -77.3397 N.am      7 UNK        -0.4454 
     38 C         -76.3807   27.1332  -77.3929 C.2       7 UNK         0.5089 
     39 O         -76.0627   26.1640  -78.0845 O.2       7 UNK        -0.5125 
     40 CA        -77.6145   27.0488  -76.4764 C.3       6 UNK         0.0408 
     41 CB        -78.8938   26.8598  -77.3043 C.3       6 UNK        -0.1791 
     42 N         -77.5093   25.9859  -75.4713 N.am      6 UNK        -0.4762 
     43 C         -76.4847   25.8385  -74.6156 C.2       6 UNK         0.5007 
     44 O         -75.4928   26.5661  -74.6266 O.2       6 UNK        -0.5032 
     45 CA        -76.5434   24.6886  -73.5940 C.3       5 UNK         0.0783 
     46 C46       -77.1554   25.1355  -72.2383 C.3       11 UNK        -0.0857 
     47 S47       -75.8822   25.7800  -71.0980 S.3       11 UNK        -0.2512 
     48 C48       -76.5488   27.4056  -70.6085 C.3       11 UNK         0.0225 
     49 N         -77.2197   23.5067  -74.1402 N.am      5 UNK        -0.4615 
     50 C         -76.6986   22.2702  -74.1317 C.2       4 UNK         0.5053 
     51 O         -75.5971   21.9967  -73.6540 O.2       4 UNK        -0.5105 
     52 CA        -77.5325   21.1261  -74.7430 C.3       4 UNK         0.0263 
     53 CB        -78.2406   20.3308  -73.6338 C.3       4 UNK        -0.1981 
     54 N         -78.5295   21.5753  -75.7139 N.am      4 UNK        -0.4224 
     55 C         -78.2561   22.1144  -76.9096 C.2       3 UNK         0.4895 
     56 O         -77.1226   22.1780  -77.3855 O.2       3 UNK        -0.5091 
     57 CA        -79.4397   22.7004  -77.7061 C.3       3 UNK         0.0250 
     58 CB        -79.8065   21.7718  -78.8755 C.3       3 UNK        -0.1996 
     59 N         -80.6547   22.9853  -76.9260 N.am      3 UNK        -0.4254 
     60 C         -80.7405   23.7808  -75.8500 C.2       2 UNK         0.5004 
     61 O         -79.7684   24.3258  -75.3186 O.2       2 UNK        -0.5226 
     62 CA        -82.1358   23.9224  -75.2213 C.3       2 UNK         0.0269 
     63 CB        -82.4427   22.7082  -74.3288 C.3       2 UNK        -0.1926 
     64 N         -82.2379   25.1352  -74.4102 N.am      2 UNK        -0.4687 
     65 C         -82.3130   26.3815  -74.8986 C.2       1 UNK         0.5165 
     66 O         -82.4119   26.6400  -76.0992 O.2       1 UNK        -0.5079 
     67 H67       -85.5902   27.3255  -70.8079 H         1 UNK         0.0900 
     68 H68       -84.0989   26.4623  -70.4278 H         1 UNK         0.0900 
     69 H69       -85.4128   25.6277  -71.2593 H         1 UNK         0.0900 
     70 H70       -82.4303   27.0045  -71.8108 H         1 UNK         0.2959 
     71 H71       -82.8464   28.3612  -74.2992 H         1 UNK         0.1079 
     72 H72       -80.8202   28.4266  -72.5579 H         1 UNK         0.0837 
     73 H73       -80.1430   27.1559  -73.5351 H         1 UNK         0.0837 
     74 H74       -79.9278   30.6062  -72.7353 H         1 UNK         0.0685 
     75 H75       -79.1911   31.3303  -74.1367 H         1 UNK         0.0685 
     76 H76       -78.7658   28.6384  -71.5922 H         1 UNK         0.1434 
     77 H77       -74.5370   28.3489  -72.1895 H         1 UNK         0.1329 
     78 H78       -76.8956   30.8530  -74.7520 H         1 UNK         0.1335 
     79 H79       -73.5928   29.2271  -74.2924 H         1 UNK         0.0680 
     80 H80       -74.5918   30.1415  -75.3895 H         1 UNK         0.0680 
     81 H81       -72.8384   31.7049  -71.5080 H         1 UNK         0.1032 
     82 H82       -72.9240   30.0422  -72.0143 H         1 UNK         0.1032 
     83 H83       -70.8387   32.0645  -72.9499 H         1 UNK         0.0461 
     84 H84       -69.4122   29.0765  -72.0088 H         1 UNK         0.3453 
     85 H85       -68.9285   29.5950  -70.4117 H         1 UNK         0.3453 
     86 H86       -71.1664   29.2181  -73.7328 H         1 UNK         0.2984 
     87 H87       -69.2012   29.7240  -76.5685 H         1 UNK         0.0554 
     88 H88       -67.3097   29.1439  -75.0627 H         1 UNK         0.0847 
     89 H89       -67.8429   27.7385  -75.9684 H         1 UNK         0.0847 
     90 H90       -68.2839   27.9161  -74.2709 H         1 UNK         0.0847 
     91 H91       -70.8180   28.2785  -76.9109 H         1 UNK         0.3141 
     92 H92       -71.5916   25.9444  -76.6544 H         1 UNK         0.0743 
     93 H93       -71.8152   24.7093  -74.5567 H         1 UNK         0.0784 
     94 H94       -73.1167   25.7512  -74.0111 H         1 UNK         0.0784 
     95 H95       -73.3575   24.6866  -75.3978 H         1 UNK         0.0784 
     96 H96       -74.1364   27.1255  -75.8979 H         1 UNK         0.3213 
     97 H97       -74.2741   29.6877  -77.7785 H         1 UNK         0.0855 
     98 H98       -74.7535   27.5634  -79.9258 H         1 UNK         0.0814 
     99 H99       -73.7848   29.0180  -80.0794 H         1 UNK         0.0814 
    100 H100      -75.5233   29.1498  -79.8863 H         1 UNK         0.0814 
    101 H101      -76.0667   28.9972  -76.7127 H         1 UNK         0.3105 
    102 H102      -77.7102   27.9872  -75.9269 H         1 UNK         0.0547 
    103 H103      -79.0237   27.6779  -78.0136 H         1 UNK         0.0837 
    104 H104      -78.8714   25.9329  -77.8757 H         1 UNK         0.0837 
    105 H105      -79.7775   26.8418  -76.6684 H         1 UNK         0.0837 
    106 H106      -78.3059   25.3557  -75.4100 H         1 UNK         0.3020 
    107 H107      -75.4963   24.4283  -73.4215 H         1 UNK         0.1245 
    108 H108      -77.6139   24.2838  -71.7332 H         1 UNK         0.0781 
    109 H109      -77.9604   25.8602  -72.3755 H         1 UNK         0.0781 
    110 H110      -77.5223   27.2601  -70.1376 H         1 UNK         0.0836 
    111 H111      -75.9008   27.8324  -69.8418 H         1 UNK         0.0836 
    112 H112      -78.1329   23.6579  -74.5583 H         1 UNK         0.3022 
    113 H113      -76.8401   20.4563  -75.2575 H         1 UNK         0.0747 
    114 H114      -77.5218   19.9520  -72.9057 H         1 UNK         0.0793 
    115 H115      -78.7718   19.4694  -74.0391 H         1 UNK         0.0793 
    116 H116      -78.9596   20.9463  -73.0915 H         1 UNK         0.0793 
    117 H117      -79.4928   21.5592  -75.4145 H         1 UNK         0.3047 
    118 H118      -79.0939   23.6468  -78.1234 H         1 UNK         0.0822 
    119 H119      -80.5601   22.2230  -79.5214 H         1 UNK         0.0807 
    120 H120      -80.1925   20.8140  -78.5242 H         1 UNK         0.0807 
    121 H121      -78.9354   21.5627  -79.4985 H         1 UNK         0.0807 
    122 H122      -81.5030   22.5567  -77.2687 H         1 UNK         0.2946 
    123 H123      -82.8769   23.9773  -76.0222 H         1 UNK         0.1144 
    124 H124      -82.4247   21.7806  -74.9024 H         1 UNK         0.0793 
    125 H125      -83.4334   22.7871  -73.8805 H         1 UNK         0.0793 
    126 H126      -81.7169   22.6063  -73.5206 H         1 UNK         0.0793 
    127 H127      -82.1502   25.0209  -73.4116 H         1 UNK         0.2896 
@<TRIPOS>BOND
     1    1    2 1    
     2    1   67 1    
     3    1   68 1    
     4    1   69 1    
     5    2    3 2    
     6    2    4 am   BACKBONE|DICT|INTERRES
     7    4    5 1    
     8    4   70 1    
     9    5    6 1    
    10    5   65 1    
    11    5   71 1    
    12    6    7 1    
    13    6   72 1    
    14    6   73 1    
    15    7    8 1    
    16    8    9 1    
    17    8   74 1    
    18    8   75 1    
    19    9   10 ar   
    20    9   14 ar   
    21   10   11 ar   
    22   10   76 1    
    23   11   12 ar   
    24   11   48 1    
    25   12   13 ar   
    26   12   77 1    
    27   13   14 ar   
    28   13   15 1    
    29   14   78 1    
    30   15   16 1    
    31   15   79 1    
    32   15   80 1    
    33   16   17 1    
    34   17   18 1    
    35   17   81 1    
    36   17   82 1    
    37   18   19 1    
    38   18   22 1    
    39   18   83 1    
    40   19   20 am   BACKBONE|DICT|INTERRES
    41   19   21 2    
    42   20   84 1    
    43   20   85 1    
    44   22   23 am   BACKBONE|DICT|INTERRES
    45   22   86 1    
    46   23   24 2    
    47   23   25 1    
    48   25   26 1    
    49   25   27 1    
    50   25   87 1    
    51   26   88 1    
    52   26   89 1    
    53   26   90 1    
    54   27   28 am   BACKBONE|DICT|INTERRES
    55   27   91 1    
    56   28   29 2    
    57   28   30 1    
    58   30   31 1    
    59   30   32 1    
    60   30   92 1    
    61   31   93 1    
    62   31   94 1    
    63   31   95 1    
    64   32   33 am   BACKBONE|DICT|INTERRES
    65   32   96 1    
    66   33   34 2    
    67   33   35 1    
    68   35   36 1    
    69   35   37 1    
    70   35   97 1    
    71   36   98 1    
    72   36   99 1    
    73   36  100 1    
    74   37   38 am   BACKBONE|DICT|INTERRES
    75   37  101 1    
    76   38   39 2    
    77   38   40 1    
    78   40   41 1    
    79   40   42 1    
    80   40  102 1    
    81   41  103 1    
    82   41  104 1    
    83   41  105 1    
    84   42   43 am   BACKBONE|DICT|INTERRES
    85   42  106 1    
    86   43   44 2    
    87   43   45 1    
    88   45   46 1    
    89   45   49 1    
    90   45  107 1    
    91   46   47 1    
    92   46  108 1    
    93   46  109 1    
    94   47   48 1    
    95   48  110 1    
    96   48  111 1    
    97   49   50 am   BACKBONE|DICT|INTERRES
    98   49  112 1    
    99   50   51 2    
   100   50   52 1    
   101   52   53 1    
   102   52   54 1    
   103   52  113 1    
   104   53  114 1    
   105   53  115 1    
   106   53  116 1    
   107   54   55 am   BACKBONE|DICT|INTERRES
   108   54  117 1    
   109   55   56 2    
   110   55   57 1    
   111   57   58 1    
   112   57   59 1    
   113   57  118 1    
   114   58  119 1    
   115   58  120 1    
   116   58  121 1    
   117   59   60 am   BACKBONE|DICT|INTERRES
   118   59  122 1    
   119   60   61 2    
   120   60   62 1    
   121   62   63 1    
   122   62   64 1    
   123   62  123 1    
   124   63  124 1    
   125   63  125 1    
   126   63  126 1    
   127   64   65 am   BACKBONE|DICT|INTERRES
   128   64  127 1    
   129   65   66 2    
@<TRIPOS>SUBSTRUCTURE
     1 UNK         1 GROUP             0       ****    0 ROOT    
