@<TRIPOS>MOLECULE
3R135
127   129    1
SMALL
USER_CHARGES


@<TRIPOS>ATOM
      1 CA        -85.4685   31.0576  -73.7817 C.3       0 UNK        -0.1998 
      2 C         -84.1980   30.2286  -73.6658 C.2       0 UNK         0.4909 
      3 O         -83.4010   30.1967  -74.6037 O.2       0 UNK        -0.5240 
      4 N         -84.0002   29.5663  -72.5193 N.am      1 UNK        -0.4739 
      5 CA        -82.8626   28.6826  -72.2439 C.3       1 UNK         0.0864 
      6 C6        -82.7527   28.3597  -70.7325 C.3       11 UNK        -0.0881 
      7 S7        -82.1422   29.8131  -69.8069 S.3       11 UNK        -0.2682 
      8 C8        -80.4384   29.3327  -69.3520 C.3       11 UNK         0.0289 
      9 C9        -79.6691   28.7044  -70.5076 C.ar      11 UNK        -0.0687 
     10 C10       -79.3204   27.3521  -70.4576 C.ar      11 UNK        -0.0823 
     11 C11       -78.6745   26.7470  -71.5363 C.ar      11 UNK        -0.0830 
     12 C12       -78.3905   27.5018  -72.6780 C.ar      11 UNK        -0.1021 
     13 C13       -78.6834   28.8713  -72.7250 C.ar      11 UNK        -0.0753 
     14 C14       -79.3248   29.4623  -71.6311 C.ar      11 UNK        -0.0933 
     15 C15       -78.3525   29.7428  -73.9393 C.3       11 UNK         0.0166 
     16 S16       -77.0605   29.0884  -75.0540 S.3       11 UNK        -0.2615 
     17 C17       -75.5741   29.1042  -73.9892 C.3       11 UNK        -0.0865 
     18 CA        -74.3533   29.8088  -74.6472 C.3       10 UNK         0.0862 
     19 C         -73.1152   29.8711  -73.7016 C.2       10 UNK         0.5551 
     20 N         -71.8926   29.7547  -74.2058 N.am      10 UNK        -0.7319 
     21 O         -73.2618   30.0600  -72.4968 O.2       10 UNK        -0.5018 
     22 N         -74.0642   29.3134  -76.0043 N.am      10 UNK        -0.4509 
     23 C         -73.7297   28.0640  -76.3501 C.2       10 UNK         0.4899 
     24 O         -73.5942   27.1350  -75.5451 O.2       10 UNK        -0.4839 
     25 CA        -73.5638   27.7904  -77.8603 C.3       9 UNK         0.0222 
     26 CB        -73.6302   29.0507  -78.7545 C.3       9 UNK        -0.1966 
     27 N         -72.3542   27.0201  -78.1553 N.am      9 UNK        -0.4218 
     28 C         -71.0857   27.3524  -77.8789 C.2       9 UNK         0.5020 
     29 O         -70.7521   28.3999  -77.3197 O.2       9 UNK        -0.5274 
     30 CA        -70.0209   26.3102  -78.2796 C.3       8 UNK         0.0270 
     31 CB        -68.5830   26.8123  -78.0522 C.3       8 UNK        -0.1976 
     32 N         -70.2099   25.0679  -77.5312 N.am      8 UNK        -0.4313 
     33 C         -71.1656   24.1558  -77.7430 C.2       8 UNK         0.5041 
     34 O         -71.9281   24.1839  -78.7101 O.2       8 UNK        -0.5577 
     35 CA        -71.3741   23.1018  -76.6425 C.3       7 UNK         0.0284 
     36 CB        -70.2645   22.0316  -76.6488 C.3       7 UNK        -0.1958 
     37 N         -71.5601   23.7189  -75.3193 N.am      7 UNK        -0.4454 
     38 C         -70.6718   24.3938  -74.5725 C.2       7 UNK         0.5089 
     39 O         -69.4744   24.4769  -74.8510 O.2       7 UNK        -0.5125 
     40 CA        -71.2158   25.1782  -73.3645 C.3       6 UNK         0.0408 
     41 CB        -70.6267   26.5994  -73.3337 C.3       6 UNK        -0.1791 
     42 N         -72.6775   25.2915  -73.3883 N.am      6 UNK        -0.4762 
     43 C         -73.5183   24.4952  -72.7108 C.2       6 UNK         0.5007 
     44 O         -73.1447   23.5489  -72.0176 O.2       6 UNK        -0.5032 
     45 CA        -75.0245   24.7837  -72.8398 C.3       5 UNK         0.0783 
     46 C46       -75.5134   25.7573  -71.7270 C.3       11 UNK        -0.0857 
     47 S47       -76.7223   24.9957  -70.5936 S.3       11 UNK        -0.2512 
     48 C48       -78.2958   25.2744  -71.4688 C.3       11 UNK         0.0225 
     49 N         -75.3400   25.2641  -74.1919 N.am      5 UNK        -0.4615 
     50 C         -76.3435   24.8093  -74.9472 C.2       4 UNK         0.5053 
     51 O         -77.1609   23.9600  -74.5858 O.2       4 UNK        -0.5105 
     52 CA        -76.4299   25.3728  -76.3668 C.3       4 UNK         0.0263 
     53 CB        -75.4996   24.5925  -77.3163 C.3       4 UNK        -0.1981 
     54 N         -77.8148   25.2856  -76.8163 N.am      4 UNK        -0.4224 
     55 C         -78.3518   25.9880  -77.8203 C.2       3 UNK         0.4895 
     56 O         -77.7115   26.7560  -78.5398 O.2       3 UNK        -0.5091 
     57 CA        -79.8603   25.8062  -78.0753 C.3       3 UNK         0.0250 
     58 CB        -80.0986   24.6860  -79.1014 C.3       3 UNK        -0.1996 
     59 N         -80.6505   25.5348  -76.8676 N.am      3 UNK        -0.4254 
     60 C         -80.8218   26.4036  -75.8613 C.2       2 UNK         0.5004 
     61 O         -80.3072   27.5236  -75.8316 O.2       2 UNK        -0.5226 
     62 CA        -81.7209   25.9464  -74.7016 C.3       2 UNK         0.0269 
     63 CB        -81.1520   24.7036  -73.9948 C.3       2 UNK        -0.1926 
     64 N         -81.8365   27.0411  -73.7403 N.am      2 UNK        -0.4687 
     65 C         -82.9493   27.3984  -73.0924 C.2       1 UNK         0.5165 
     66 O         -84.0073   26.7652  -73.1381 O.2       1 UNK        -0.5079 
     67 H67       -86.0716   31.0087  -72.8751 H         1 UNK         0.0900 
     68 H68       -86.0754   30.6992  -74.6127 H         1 UNK         0.0900 
     69 H69       -85.2192   32.1022  -73.9667 H         1 UNK         0.0900 
     70 H70       -84.6938   29.6226  -71.7876 H         1 UNK         0.2959 
     71 H71       -81.9594   29.2139  -72.5509 H         1 UNK         0.1079 
     72 H72       -83.7236   28.0661  -70.3292 H         1 UNK         0.0837 
     73 H73       -82.0961   27.5081  -70.5506 H         1 UNK         0.0837 
     74 H74       -79.9031   30.2155  -69.0001 H         1 UNK         0.0685 
     75 H75       -80.4862   28.6474  -68.5042 H         1 UNK         0.0685 
     76 H76       -79.5624   26.7632  -69.5832 H         1 UNK         0.1434 
     77 H77       -77.9200   27.0171  -73.5209 H         1 UNK         0.1329 
     78 H78       -79.5839   30.5121  -71.6619 H         1 UNK         0.1335 
     79 H79       -79.2656   29.8759  -74.5210 H         1 UNK         0.0680 
     80 H80       -78.0478   30.7372  -73.6093 H         1 UNK         0.0680 
     81 H81       -75.3198   28.0752  -73.7474 H         1 UNK         0.1032 
     82 H82       -75.8215   29.5825  -73.0397 H         1 UNK         0.1032 
     83 H83       -74.6347   30.8529  -74.7877 H         1 UNK         0.0461 
     84 H84       -71.0978   29.8185  -73.5907 H         1 UNK         0.3453 
     85 H85       -71.7578   29.5881  -75.1921 H         1 UNK         0.3453 
     86 H86       -74.1431   30.0018  -76.7380 H         1 UNK         0.2984 
     87 H87       -74.4030   27.1544  -78.1412 H         1 UNK         0.0554 
     88 H88       -73.5157   28.7878  -79.8062 H         1 UNK         0.0847 
     89 H89       -72.8475   29.7706  -78.5113 H         1 UNK         0.0847 
     90 H90       -74.5934   29.5545  -78.6632 H         1 UNK         0.0847 
     91 H91       -72.4998   26.0942  -78.5489 H         1 UNK         0.3141 
     92 H92       -70.1426   26.1050  -79.3453 H         1 UNK         0.0743 
     93 H93       -68.3901   27.0215  -76.9990 H         1 UNK         0.0784 
     94 H94       -67.8495   26.0789  -78.3878 H         1 UNK         0.0784 
     95 H95       -68.3981   27.7325  -78.6081 H         1 UNK         0.0784 
     96 H96       -69.6852   24.9753  -76.6642 H         1 UNK         0.3213 
     97 H97       -72.3141   22.5944  -76.8672 H         1 UNK         0.0855 
     98 H98       -69.2740   22.4567  -76.4864 H         1 UNK         0.0814 
     99 H99       -70.2363   21.5125  -77.6077 H         1 UNK         0.0814 
    100 H100      -70.4363   21.2797  -75.8787 H         1 UNK         0.0814 
    101 H101      -72.5147   23.7422  -74.9911 H         1 UNK         0.3105 
    102 H102      -70.8910   24.6571  -72.4618 H         1 UNK         0.0547 
    103 H103      -69.5437   26.5753  -73.2067 H         1 UNK         0.0837 
    104 H104      -70.8338   27.1369  -74.2602 H         1 UNK         0.0837 
    105 H105      -71.0342   27.1831  -72.5081 H         1 UNK         0.0837 
    106 H106      -73.0416   26.0371  -73.9725 H         1 UNK         0.3020 
    107 H107      -75.5046   23.8117  -72.7006 H         1 UNK         0.1245 
    108 H108      -74.6912   26.1204  -71.1062 H         1 UNK         0.0781 
    109 H109      -75.9432   26.6614  -72.1476 H         1 UNK         0.0781 
    110 H110      -79.0853   24.7159  -70.9639 H         1 UNK         0.0836 
    111 H111      -78.2209   24.8506  -72.4673 H         1 UNK         0.0836 
    112 H112      -74.7077   25.9459  -74.6012 H         1 UNK         0.3022 
    113 H113      -76.1442   26.4252  -76.3428 H         1 UNK         0.0747 
    114 H114      -75.5522   24.9742  -78.3357 H         1 UNK         0.0793 
    115 H115      -74.4592   24.6705  -76.9982 H         1 UNK         0.0793 
    116 H116      -75.7546   23.5324  -77.3460 H         1 UNK         0.0793 
    117 H117      -78.4002   24.6843  -76.2500 H         1 UNK         0.3047 
    118 H118      -80.2273   26.7415  -78.5039 H         1 UNK         0.0822 
    119 H119      -81.1520   24.6118  -79.3723 H         1 UNK         0.0807 
    120 H120      -79.7784   23.7148  -78.7218 H         1 UNK         0.0807 
    121 H121      -79.5428   24.8751  -80.0210 H         1 UNK         0.0807 
    122 H122      -81.1085   24.6358  -76.8205 H         1 UNK         0.2946 
    123 H123      -82.7046   25.7140  -75.1167 H         1 UNK         0.1144 
    124 H124      -81.1756   23.8297  -74.6462 H         1 UNK         0.0793 
    125 H125      -81.7260   24.4539  -73.1022 H         1 UNK         0.0793 
    126 H126      -80.1169   24.8578  -73.6960 H         1 UNK         0.0793 
    127 H127      -81.0260   27.6484  -73.7130 H         1 UNK         0.2896 
@<TRIPOS>BOND
     1    1    2 1    
     2    1   67 1    
     3    1   68 1    
     4    1   69 1    
     5    2    3 2    
     6    2    4 am   BACKBONE|DICT|INTERRES
     7    4    5 1    
     8    4   70 1    
     9    5    6 1    
    10    5   65 1    
    11    5   71 1    
    12    6    7 1    
    13    6   72 1    
    14    6   73 1    
    15    7    8 1    
    16    8    9 1    
    17    8   74 1    
    18    8   75 1    
    19    9   10 ar   
    20    9   14 ar   
    21   10   11 ar   
    22   10   76 1    
    23   11   12 ar   
    24   11   48 1    
    25   12   13 ar   
    26   12   77 1    
    27   13   14 ar   
    28   13   15 1    
    29   14   78 1    
    30   15   16 1    
    31   15   79 1    
    32   15   80 1    
    33   16   17 1    
    34   17   18 1    
    35   17   81 1    
    36   17   82 1    
    37   18   19 1    
    38   18   22 1    
    39   18   83 1    
    40   19   20 am   BACKBONE|DICT|INTERRES
    41   19   21 2    
    42   20   84 1    
    43   20   85 1    
    44   22   23 am   BACKBONE|DICT|INTERRES
    45   22   86 1    
    46   23   24 2    
    47   23   25 1    
    48   25   26 1    
    49   25   27 1    
    50   25   87 1    
    51   26   88 1    
    52   26   89 1    
    53   26   90 1    
    54   27   28 am   BACKBONE|DICT|INTERRES
    55   27   91 1    
    56   28   29 2    
    57   28   30 1    
    58   30   31 1    
    59   30   32 1    
    60   30   92 1    
    61   31   93 1    
    62   31   94 1    
    63   31   95 1    
    64   32   33 am   BACKBONE|DICT|INTERRES
    65   32   96 1    
    66   33   34 2    
    67   33   35 1    
    68   35   36 1    
    69   35   37 1    
    70   35   97 1    
    71   36   98 1    
    72   36   99 1    
    73   36  100 1    
    74   37   38 am   BACKBONE|DICT|INTERRES
    75   37  101 1    
    76   38   39 2    
    77   38   40 1    
    78   40   41 1    
    79   40   42 1    
    80   40  102 1    
    81   41  103 1    
    82   41  104 1    
    83   41  105 1    
    84   42   43 am   BACKBONE|DICT|INTERRES
    85   42  106 1    
    86   43   44 2    
    87   43   45 1    
    88   45   46 1    
    89   45   49 1    
    90   45  107 1    
    91   46   47 1    
    92   46  108 1    
    93   46  109 1    
    94   47   48 1    
    95   48  110 1    
    96   48  111 1    
    97   49   50 am   BACKBONE|DICT|INTERRES
    98   49  112 1    
    99   50   51 2    
   100   50   52 1    
   101   52   53 1    
   102   52   54 1    
   103   52  113 1    
   104   53  114 1    
   105   53  115 1    
   106   53  116 1    
   107   54   55 am   BACKBONE|DICT|INTERRES
   108   54  117 1    
   109   55   56 2    
   110   55   57 1    
   111   57   58 1    
   112   57   59 1    
   113   57  118 1    
   114   58  119 1    
   115   58  120 1    
   116   58  121 1    
   117   59   60 am   BACKBONE|DICT|INTERRES
   118   59  122 1    
   119   60   61 2    
   120   60   62 1    
   121   62   63 1    
   122   62   64 1    
   123   62  123 1    
   124   63  124 1    
   125   63  125 1    
   126   63  126 1    
   127   64   65 am   BACKBONE|DICT|INTERRES
   128   64  127 1    
   129   65   66 2    
@<TRIPOS>SUBSTRUCTURE
     1 UNK         1 GROUP             0       ****    0 ROOT    
