@<TRIPOS>MOLECULE
3R135
127   129    1
SMALL
USER_CHARGES


@<TRIPOS>ATOM
      1 CA        -85.1025   26.1291  -71.5932 C.3       0 UNK        -0.1998 
      2 C         -83.7075   26.3659  -72.1509 C.2       0 UNK         0.4909 
      3 O         -83.5573   27.0581  -73.1590 O.2       0 UNK        -0.5240 
      4 N         -82.6801   25.7892  -71.5136 N.am      1 UNK        -0.4739 
      5 CA        -81.2700   25.8917  -71.9079 C.3       1 UNK         0.0864 
      6 C6        -80.3429   25.7832  -70.6666 C.3       11 UNK        -0.0881 
      7 S7        -78.7524   26.6442  -70.8975 S.3       11 UNK        -0.2682 
      8 C8        -79.1607   28.3543  -70.4264 C.3       11 UNK         0.0289 
      9 C9        -78.6775   29.3259  -71.4909 C.ar      11 UNK        -0.0687 
     10 C10       -79.4097   29.4764  -72.6710 C.ar      11 UNK        -0.0823 
     11 C11       -78.9626   30.3315  -73.6784 C.ar      11 UNK        -0.0830 
     12 C12       -77.7969   31.0760  -73.4838 C.ar      11 UNK        -0.1021 
     13 C13       -77.0499   30.9303  -72.3127 C.ar      11 UNK        -0.0753 
     14 C14       -77.4946   30.0534  -71.3163 C.ar      11 UNK        -0.0933 
     15 C15       -75.7512   31.7064  -72.1498 C.3       11 UNK         0.0166 
     16 S16       -74.4488   31.0624  -73.2501 S.3       11 UNK        -0.2615 
     17 C17       -74.1619   29.4172  -72.5183 C.3       11 UNK        -0.0865 
     18 CA        -72.6845   28.9641  -72.6350 C.3       10 UNK         0.0862 
     19 C         -72.3713   27.7535  -71.7039 C.2       10 UNK         0.5551 
     20 N         -71.7370   26.6831  -72.1683 N.am      10 UNK        -0.7319 
     21 O         -72.6845   27.7980  -70.5165 O.2       10 UNK        -0.5018 
     22 N         -72.2960   28.7538  -74.0396 N.am      10 UNK        -0.4509 
     23 C         -71.0732   28.9918  -74.5315 C.2       10 UNK         0.4899 
     24 O         -70.1627   29.5062  -73.8795 O.2       10 UNK        -0.4839 
     25 CA        -70.8228   28.5634  -75.9934 C.3       9 UNK         0.0222 
     26 CB        -69.3242   28.5290  -76.3604 C.3       9 UNK        -0.1966 
     27 N         -71.4640   27.2889  -76.3429 N.am      9 UNK        -0.4218 
     28 C         -71.3165   26.1068  -75.7213 C.2       9 UNK         0.5020 
     29 O         -70.5520   25.9326  -74.7714 O.2       9 UNK        -0.5274 
     30 CA        -72.1908   24.9297  -76.1908 C.3       8 UNK         0.0270 
     31 CB        -72.8864   24.2669  -74.9897 C.3       8 UNK        -0.1976 
     32 N         -73.2148   25.3605  -77.1449 N.am      8 UNK        -0.4313 
     33 C         -73.2035   25.1051  -78.4605 C.2       8 UNK         0.5041 
     34 O         -72.3642   24.3934  -79.0138 O.2       8 UNK        -0.5577 
     35 CA        -74.2877   25.7854  -79.3220 C.3       7 UNK         0.0284 
     36 CB        -75.4765   24.8357  -79.5421 C.3       7 UNK        -0.1958 
     37 N         -74.7796   27.0501  -78.7663 N.am      7 UNK        -0.4454 
     38 C         -74.0324   28.1383  -78.5305 C.2       7 UNK         0.5089 
     39 O         -72.8436   28.2287  -78.8339 O.2       7 UNK        -0.5125 
     40 CA        -74.6943   29.2881  -77.7506 C.3       6 UNK         0.0408 
     41 CB        -75.1789   30.3830  -78.7124 C.3       6 UNK        -0.1791 
     42 N         -75.8099   28.8666  -76.8968 N.am      6 UNK        -0.4762 
     43 C         -75.7535   27.9883  -75.8873 C.2       6 UNK         0.5007 
     44 O         -74.7020   27.4167  -75.5825 O.2       6 UNK        -0.5032 
     45 CA        -77.0775   27.6945  -75.1238 C.3       5 UNK         0.0783 
     46 C46       -78.3870   28.0345  -75.9084 C.3       11 UNK        -0.0857 
     47 S47       -78.6795   29.7867  -76.3647 S.3       11 UNK        -0.2512 
     48 C48       -79.7080   30.4089  -74.9987 C.3       11 UNK         0.0225 
     49 N         -77.1236   26.2919  -74.6863 N.am      5 UNK        -0.4615 
     50 C         -76.4253   25.7419  -73.6796 C.2       4 UNK         0.5053 
     51 O         -75.7324   26.3923  -72.8995 O.2       4 UNK        -0.5105 
     52 CA        -76.4813   24.2079  -73.5082 C.3       4 UNK         0.0263 
     53 CB        -76.7759   23.7875  -72.0580 C.3       4 UNK        -0.1981 
     54 N         -77.4332   23.5486  -74.4046 N.am      4 UNK        -0.4224 
     55 C         -77.1609   23.1842  -75.6665 C.2       3 UNK         0.4895 
     56 O         -76.0637   23.3427  -76.1989 O.2       3 UNK        -0.5091 
     57 CA        -78.2981   22.5548  -76.4933 C.3       3 UNK         0.0250 
     58 CB        -78.1301   21.0283  -76.5606 C.3       3 UNK        -0.1996 
     59 N         -79.6461   22.8688  -76.0098 N.am      3 UNK        -0.4254 
     60 C         -80.1782   24.0974  -75.9559 C.2       2 UNK         0.5004 
     61 O         -79.5759   25.1115  -76.3086 O.2       2 UNK        -0.5226 
     62 CA        -81.6051   24.2332  -75.3919 C.3       2 UNK         0.0269 
     63 CB        -82.3165   22.8862  -75.1262 C.3       2 UNK        -0.1926 
     64 N         -81.6400   25.0667  -74.1848 N.am      2 UNK        -0.4687 
     65 C         -80.9479   24.8949  -73.0478 C.2       1 UNK         0.5165 
     66 O         -80.1386   23.9808  -72.8764 O.2       1 UNK        -0.5079 
     67 H67       -85.0843   25.5042  -70.7006 H         1 UNK         0.0900 
     68 H68       -85.7259   25.6374  -72.3395 H         1 UNK         0.0900 
     69 H69       -85.5678   27.0793  -71.3326 H         1 UNK         0.0900 
     70 H70       -82.8665   25.1990  -70.7147 H         1 UNK         0.2959 
     71 H71       -81.1267   26.8857  -72.3318 H         1 UNK         0.1079 
     72 H72       -80.8255   26.2187  -69.7899 H         1 UNK         0.0837 
     73 H73       -80.1514   24.7424  -70.3991 H         1 UNK         0.0837 
     74 H74       -80.2373   28.4714  -70.2936 H         1 UNK         0.0685 
     75 H75       -78.7049   28.5779  -69.4607 H         1 UNK         0.0685 
     76 H76       -80.3149   28.9067  -72.8183 H         1 UNK         0.1434 
     77 H77       -77.4441   31.7354  -74.2655 H         1 UNK         0.1329 
     78 H78       -76.9159   29.9275  -70.4116 H         1 UNK         0.1335 
     79 H79       -75.4049   31.6815  -71.1154 H         1 UNK         0.0680 
     80 H80       -75.9274   32.7562  -72.3885 H         1 UNK         0.0680 
     81 H81       -74.8229   28.7047  -73.0074 H         1 UNK         0.1032 
     82 H82       -74.4725   29.4463  -71.4725 H         1 UNK         0.1032 
     83 H83       -72.0792   29.7789  -72.2332 H         1 UNK         0.0461 
     84 H84       -71.5416   25.9234  -71.5372 H         1 UNK         0.3453 
     85 H85       -71.4152   26.6300  -73.1282 H         1 UNK         0.3453 
     86 H86       -72.9893   28.3026  -74.6257 H         1 UNK         0.2984 
     87 H87       -71.2971   29.3231  -76.6160 H         1 UNK         0.0554 
     88 H88       -69.1782   28.2526  -77.4045 H         1 UNK         0.0847 
     89 H89       -68.7738   27.8170  -75.7445 H         1 UNK         0.0847 
     90 H90       -68.8627   29.5071  -76.2187 H         1 UNK         0.0847 
     91 H91       -72.0870   27.3315  -77.1416 H         1 UNK         0.3141 
     92 H92       -71.5242   24.1959  -76.6478 H         1 UNK         0.0743 
     93 H93       -73.5066   24.9816  -74.4474 H         1 UNK         0.0784 
     94 H94       -73.5187   23.4379  -75.3064 H         1 UNK         0.0784 
     95 H95       -72.1594   23.8643  -74.2833 H         1 UNK         0.0784 
     96 H96       -73.9367   25.9660  -76.7645 H         1 UNK         0.3213 
     97 H97       -73.8386   26.0052  -80.2930 H         1 UNK         0.0855 
     98 H98       -75.9943   24.6141  -78.6083 H         1 UNK         0.0814 
     99 H99       -75.1442   23.8853  -79.9623 H         1 UNK         0.0814 
    100 H100      -76.2015   25.2593  -80.2372 H         1 UNK         0.0814 
    101 H101      -75.7464   27.0752  -78.4774 H         1 UNK         0.3105 
    102 H102      -73.9322   29.7192  -77.0980 H         1 UNK         0.0547 
    103 H103      -74.3628   30.7377  -79.3437 H         1 UNK         0.0837 
    104 H104      -75.9684   30.0212  -79.3721 H         1 UNK         0.0837 
    105 H105      -75.5640   31.2462  -78.1693 H         1 UNK         0.0837 
    106 H106      -76.7053   29.3103  -77.0695 H         1 UNK         0.3020 
    107 H107      -77.0486   28.3137  -74.2252 H         1 UNK         0.1245 
    108 H108      -79.2499   27.7013  -75.3289 H         1 UNK         0.0781 
    109 H109      -78.4215   27.4529  -76.8312 H         1 UNK         0.0781 
    110 H110      -80.6419   29.8455  -74.9637 H         1 UNK         0.0836 
    111 H111      -79.9792   31.4463  -75.1990 H         1 UNK         0.0836 
    112 H112      -77.6877   25.6778  -75.2601 H         1 UNK         0.3022 
    113 H113      -75.4802   23.8420  -73.7395 H         1 UNK         0.0747 
    114 H114      -76.6699   22.7101  -71.9316 H         1 UNK         0.0793 
    115 H115      -76.0866   24.2629  -71.3589 H         1 UNK         0.0793 
    116 H116      -77.7852   24.0581  -71.7543 H         1 UNK         0.0793 
    117 H117      -78.3751   23.4289  -74.0473 H         1 UNK         0.3047 
    118 H118      -78.2123   22.9529  -77.5068 H         1 UNK         0.0822 
    119 H119      -78.8683   20.5752  -77.2225 H         1 UNK         0.0807 
    120 H120      -78.2303   20.5675  -75.5770 H         1 UNK         0.0807 
    121 H121      -77.1452   20.7607  -76.9466 H         1 UNK         0.0807 
    122 H122      -80.2010   22.0937  -75.6768 H         1 UNK         0.2946 
    123 H123      -82.1766   24.7643  -76.1550 H         1 UNK         0.1144 
    124 H124      -82.3662   22.2778  -76.0304 H         1 UNK         0.0793 
    125 H125      -83.3440   23.0489  -74.8003 H         1 UNK         0.0793 
    126 H126      -81.8196   22.2997  -74.3524 H         1 UNK         0.0793 
    127 H127      -82.2927   25.8444  -74.2045 H         1 UNK         0.2896 
@<TRIPOS>BOND
     1    1    2 1    
     2    1   67 1    
     3    1   68 1    
     4    1   69 1    
     5    2    3 2    
     6    2    4 am   BACKBONE|DICT|INTERRES
     7    4    5 1    
     8    4   70 1    
     9    5    6 1    
    10    5   65 1    
    11    5   71 1    
    12    6    7 1    
    13    6   72 1    
    14    6   73 1    
    15    7    8 1    
    16    8    9 1    
    17    8   74 1    
    18    8   75 1    
    19    9   10 ar   
    20    9   14 ar   
    21   10   11 ar   
    22   10   76 1    
    23   11   12 ar   
    24   11   48 1    
    25   12   13 ar   
    26   12   77 1    
    27   13   14 ar   
    28   13   15 1    
    29   14   78 1    
    30   15   16 1    
    31   15   79 1    
    32   15   80 1    
    33   16   17 1    
    34   17   18 1    
    35   17   81 1    
    36   17   82 1    
    37   18   19 1    
    38   18   22 1    
    39   18   83 1    
    40   19   20 am   BACKBONE|DICT|INTERRES
    41   19   21 2    
    42   20   84 1    
    43   20   85 1    
    44   22   23 am   BACKBONE|DICT|INTERRES
    45   22   86 1    
    46   23   24 2    
    47   23   25 1    
    48   25   26 1    
    49   25   27 1    
    50   25   87 1    
    51   26   88 1    
    52   26   89 1    
    53   26   90 1    
    54   27   28 am   BACKBONE|DICT|INTERRES
    55   27   91 1    
    56   28   29 2    
    57   28   30 1    
    58   30   31 1    
    59   30   32 1    
    60   30   92 1    
    61   31   93 1    
    62   31   94 1    
    63   31   95 1    
    64   32   33 am   BACKBONE|DICT|INTERRES
    65   32   96 1    
    66   33   34 2    
    67   33   35 1    
    68   35   36 1    
    69   35   37 1    
    70   35   97 1    
    71   36   98 1    
    72   36   99 1    
    73   36  100 1    
    74   37   38 am   BACKBONE|DICT|INTERRES
    75   37  101 1    
    76   38   39 2    
    77   38   40 1    
    78   40   41 1    
    79   40   42 1    
    80   40  102 1    
    81   41  103 1    
    82   41  104 1    
    83   41  105 1    
    84   42   43 am   BACKBONE|DICT|INTERRES
    85   42  106 1    
    86   43   44 2    
    87   43   45 1    
    88   45   46 1    
    89   45   49 1    
    90   45  107 1    
    91   46   47 1    
    92   46  108 1    
    93   46  109 1    
    94   47   48 1    
    95   48  110 1    
    96   48  111 1    
    97   49   50 am   BACKBONE|DICT|INTERRES
    98   49  112 1    
    99   50   51 2    
   100   50   52 1    
   101   52   53 1    
   102   52   54 1    
   103   52  113 1    
   104   53  114 1    
   105   53  115 1    
   106   53  116 1    
   107   54   55 am   BACKBONE|DICT|INTERRES
   108   54  117 1    
   109   55   56 2    
   110   55   57 1    
   111   57   58 1    
   112   57   59 1    
   113   57  118 1    
   114   58  119 1    
   115   58  120 1    
   116   58  121 1    
   117   59   60 am   BACKBONE|DICT|INTERRES
   118   59  122 1    
   119   60   61 2    
   120   60   62 1    
   121   62   63 1    
   122   62   64 1    
   123   62  123 1    
   124   63  124 1    
   125   63  125 1    
   126   63  126 1    
   127   64   65 am   BACKBONE|DICT|INTERRES
   128   64  127 1    
   129   65   66 2    
@<TRIPOS>SUBSTRUCTURE
     1 UNK         1 GROUP             0       ****    0 ROOT    
