@<TRIPOS>MOLECULE
3R135
127   129    1
SMALL
USER_CHARGES


@<TRIPOS>ATOM
      1 CA        -83.0473   23.0514  -70.3149 C.3       0 UNK        -0.1998 
      2 C         -82.7543   24.3959  -70.9633 C.2       0 UNK         0.4909 
      3 O         -83.6314   25.2589  -71.0065 O.2       0 UNK        -0.5240 
      4 N         -81.5264   24.5805  -71.4662 N.am      1 UNK        -0.4739 
      5 CA        -81.0655   25.8121  -72.1225 C.3       1 UNK         0.0864 
      6 C6        -79.5243   25.8396  -72.2680 C.3       11 UNK        -0.0881 
      7 S7        -78.6574   25.8921  -70.6635 S.3       11 UNK        -0.2682 
      8 C8        -78.7245   27.6655  -70.2413 C.3       11 UNK         0.0289 
      9 C9        -77.9272   28.5234  -71.2132 C.ar      11 UNK        -0.0687 
     10 C10       -78.5689   29.1444  -72.2888 C.ar      11 UNK        -0.0823 
     11 C11       -77.8410   29.9021  -73.2084 C.ar      11 UNK        -0.0830 
     12 C12       -76.4646   30.0651  -73.0274 C.ar      11 UNK        -0.1021 
     13 C13       -75.8152   29.4743  -71.9391 C.ar      11 UNK        -0.0753 
     14 C14       -76.5509   28.6981  -71.0379 C.ar      11 UNK        -0.0933 
     15 C15       -74.3148   29.6488  -71.7632 C.3       11 UNK         0.0166 
     16 S16       -73.8638   31.3841  -71.4619 S.3       11 UNK        -0.2615 
     17 C17       -72.0414   31.2861  -71.4603 C.3       11 UNK        -0.0865 
     18 CA        -71.4410   31.5548  -72.8650 C.3       10 UNK         0.0862 
     19 C         -69.9320   31.9020  -72.7709 C.2       10 UNK         0.5551 
     20 N         -69.5973   33.1806  -72.6674 N.am      10 UNK        -0.7319 
     21 O         -69.0680   31.0273  -72.7493 O.2       10 UNK        -0.5018 
     22 N         -71.6567   30.4112  -73.7595 N.am      10 UNK        -0.4509 
     23 C         -71.7811   30.4779  -75.0866 C.2       10 UNK         0.4899 
     24 O         -71.8194   31.5385  -75.7115 O.2       10 UNK        -0.4839 
     25 CA        -71.8878   29.1550  -75.8726 C.3       9 UNK         0.0222 
     26 CB        -70.5304   28.7835  -76.4996 C.3       9 UNK        -0.1966 
     27 N         -72.4626   28.0028  -75.1586 N.am      9 UNK        -0.4218 
     28 C         -71.9807   27.3232  -74.1062 C.2       9 UNK         0.5020 
     29 O         -70.9968   27.6719  -73.4535 O.2       9 UNK        -0.5274 
     30 CA        -72.7151   26.0292  -73.7129 C.3       8 UNK         0.0270 
     31 CB        -73.8998   26.3212  -72.7793 C.3       8 UNK        -0.1976 
     32 N         -73.1865   25.2659  -74.8693 N.am      8 UNK        -0.4313 
     33 C         -72.3943   24.6360  -75.7487 C.2       8 UNK         0.5041 
     34 O         -71.1662   24.5960  -75.6642 O.2       8 UNK        -0.5577 
     35 CA        -73.0909   23.9359  -76.9267 C.3       7 UNK         0.0284 
     36 CB        -73.6698   22.5776  -76.4965 C.3       7 UNK        -0.1958 
     37 N         -74.1476   24.7682  -77.5039 N.am      7 UNK        -0.4454 
     38 C         -73.9260   25.8340  -78.2860 C.2       7 UNK         0.5089 
     39 O         -72.8105   26.1837  -78.6715 O.2       7 UNK        -0.5125 
     40 CA        -75.1565   26.6589  -78.7023 C.3       6 UNK         0.0408 
     41 CB        -75.7158   26.1552  -80.0417 C.3       6 UNK        -0.1791 
     42 N         -76.2213   26.6553  -77.6953 N.am      6 UNK        -0.4762 
     43 C         -76.1297   27.2559  -76.4979 C.2       6 UNK         0.5007 
     44 O         -75.1245   27.8538  -76.1132 O.2       6 UNK        -0.5032 
     45 CA        -77.3388   27.1050  -75.5455 C.3       5 UNK         0.0783 
     46 C46       -78.4778   28.1093  -75.8755 C.3       11 UNK        -0.0857 
     47 S47       -77.9702   29.8643  -75.9827 S.3       11 UNK        -0.2512 
     48 C48       -78.5439   30.5444  -74.3949 C.3       11 UNK         0.0225 
     49 N         -77.8389   25.7214  -75.5354 N.am      5 UNK        -0.4615 
     50 C         -77.0965   24.6417  -75.2352 C.2       4 UNK         0.5053 
     51 O         -75.9458   24.7179  -74.8093 O.2       4 UNK        -0.5105 
     52 CA        -77.6754   23.2379  -75.5061 C.3       4 UNK         0.0263 
     53 CB        -77.9950   22.5015  -74.1952 C.3       4 UNK        -0.1981 
     54 N         -78.8535   23.2178  -76.3730 N.am      4 UNK        -0.4224 
     55 C         -78.8912   23.6143  -77.6536 C.2       3 UNK         0.4895 
     56 O         -77.9003   23.9808  -78.2861 O.2       3 UNK        -0.5091 
     57 CA        -80.2830   23.6764  -78.3142 C.3       3 UNK         0.0250 
     58 CB        -80.5524   22.3955  -79.1195 C.3       3 UNK        -0.1996 
     59 N         -81.3856   23.8984  -77.3646 N.am      3 UNK        -0.4254 
     60 C         -81.4895   24.9532  -76.5407 C.2       2 UNK         0.5004 
     61 O         -80.6597   25.8622  -76.5165 O.2       2 UNK        -0.5226 
     62 CA        -82.6632   24.9804  -75.5422 C.3       2 UNK         0.0269 
     63 CB        -83.6589   23.8127  -75.7020 C.3       2 UNK        -0.1926 
     64 N         -82.1406   24.9719  -74.1739 N.am      2 UNK        -0.4687 
     65 C         -81.7279   26.0534  -73.4958 C.2       1 UNK         0.5165 
     66 O         -81.8431   27.2084  -73.9080 O.2       1 UNK        -0.5079 
     67 H67       -82.1831   22.3879  -70.3423 H         1 UNK         0.0900 
     68 H68       -83.8705   22.5576  -70.8306 H         1 UNK         0.0900 
     69 H69       -83.3332   23.1922  -69.2729 H         1 UNK         0.0900 
     70 H70       -80.8351   23.8503  -71.3695 H         1 UNK         0.2959 
     71 H71       -81.3649   26.6525  -71.4926 H         1 UNK         0.1079 
     72 H72       -79.1822   24.9520  -72.7977 H         1 UNK         0.0837 
     73 H73       -79.1936   26.6732  -72.8852 H         1 UNK         0.0837 
     74 H74       -78.3324   27.7988  -69.2319 H         1 UNK         0.0685 
     75 H75       -79.7641   27.9937  -70.2050 H         1 UNK         0.0685 
     76 H76       -79.6349   29.0175  -72.4226 H         1 UNK         0.1434 
     77 H77       -75.8956   30.6508  -73.7370 H         1 UNK         0.1329 
     78 H78       -76.0538   28.2209  -70.2044 H         1 UNK         0.1335 
     79 H79       -73.8212   29.2952  -72.6668 H         1 UNK         0.0680 
     80 H80       -73.9442   29.0383  -70.9386 H         1 UNK         0.0680 
     81 H81       -71.6907   32.0337  -70.7457 H         1 UNK         0.1032 
     82 H82       -71.7121   30.3222  -71.0674 H         1 UNK         0.1032 
     83 H83       -71.9514   32.4239  -73.2862 H         1 UNK         0.0461 
     84 H84       -68.6230   33.4279  -72.5896 H         1 UNK         0.3453 
     85 H85       -70.2985   33.9052  -72.6741 H         1 UNK         0.3453 
     86 H86       -71.4966   29.4903  -73.3625 H         1 UNK         0.2984 
     87 H87       -72.5813   29.3482  -76.6926 H         1 UNK         0.0554 
     88 H88       -70.1514   29.5960  -77.1210 H         1 UNK         0.0847 
     89 H89       -70.6175   27.9022  -77.1358 H         1 UNK         0.0847 
     90 H90       -69.7754   28.5769  -75.7403 H         1 UNK         0.0847 
     91 H91       -73.3570   27.6955  -75.5374 H         1 UNK         0.3141 
     92 H92       -72.0057   25.4011  -73.1699 H         1 UNK         0.0743 
     93 H93       -73.5645   26.8230  -71.8718 H         1 UNK         0.0784 
     94 H94       -74.6469   26.9556  -73.2583 H         1 UNK         0.0784 
     95 H95       -74.3972   25.4014  -72.4707 H         1 UNK         0.0784 
     96 H96       -74.1967   25.1804  -74.9733 H         1 UNK         0.3213 
     97 H97       -72.3395   23.7515  -77.6981 H         1 UNK         0.0855 
     98 H98       -74.4018   22.6790  -75.6953 H         1 UNK         0.0814 
     99 H99       -72.8799   21.9210  -76.1295 H         1 UNK         0.0814 
    100 H100      -74.1518   22.0680  -77.3310 H         1 UNK         0.0814 
    101 H101      -75.0984   24.5685  -77.2298 H         1 UNK         0.3105 
    102 H102      -74.8293   27.6919  -78.8391 H         1 UNK         0.0547 
    103 H103      -76.0645   25.1241  -79.9731 H         1 UNK         0.0837 
    104 H104      -76.5495   26.7699  -80.3813 H         1 UNK         0.0837 
    105 H105      -74.9519   26.1887  -80.8197 H         1 UNK         0.0837 
    106 H106      -77.0541   26.1226  -77.9146 H         1 UNK         0.3020 
    107 H107      -76.9770   27.3247  -74.5382 H         1 UNK         0.1245 
    108 H108      -79.2805   28.0139  -75.1426 H         1 UNK         0.0781 
    109 H109      -78.9279   27.8530  -76.8360 H         1 UNK         0.0781 
    110 H110      -78.3536   31.6184  -74.3817 H         1 UNK         0.0836 
    111 H111      -79.6264   30.4245  -74.3252 H         1 UNK         0.0836 
    112 H112      -78.7831   25.5932  -75.8874 H         1 UNK         0.3022 
    113 H113      -76.8902   22.6780  -76.0179 H         1 UNK         0.0747 
    114 H114      -77.1663   22.5717  -73.4887 H         1 UNK         0.0793 
    115 H115      -78.1710   21.4409  -74.3760 H         1 UNK         0.0793 
    116 H116      -78.8807   22.9026  -73.7048 H         1 UNK         0.0793 
    117 H117      -79.7220   22.9305  -75.9473 H         1 UNK         0.3047 
    118 H118      -80.2716   24.5212  -79.0060 H         1 UNK         0.0822 
    119 H119      -79.7599   22.2194  -79.8486 H         1 UNK         0.0807 
    120 H120      -81.4888   22.4638  -79.6735 H         1 UNK         0.0807 
    121 H121      -80.6044   21.5161  -78.4763 H         1 UNK         0.0807 
    122 H122      -82.1032   23.1886  -77.3294 H         1 UNK         0.2946 
    123 H123      -83.2047   25.9129  -75.7181 H         1 UNK         0.1144 
    124 H124      -84.0964   23.7977  -76.7014 H         1 UNK         0.0793 
    125 H125      -84.4869   23.9122  -74.9996 H         1 UNK         0.0793 
    126 H126      -83.1938   22.8427  -75.5213 H         1 UNK         0.0793 
    127 H127      -82.0110   24.0690  -73.7415 H         1 UNK         0.2896 
@<TRIPOS>BOND
     1    1    2 1    
     2    1   67 1    
     3    1   68 1    
     4    1   69 1    
     5    2    3 2    
     6    2    4 am   BACKBONE|DICT|INTERRES
     7    4    5 1    
     8    4   70 1    
     9    5    6 1    
    10    5   65 1    
    11    5   71 1    
    12    6    7 1    
    13    6   72 1    
    14    6   73 1    
    15    7    8 1    
    16    8    9 1    
    17    8   74 1    
    18    8   75 1    
    19    9   10 ar   
    20    9   14 ar   
    21   10   11 ar   
    22   10   76 1    
    23   11   12 ar   
    24   11   48 1    
    25   12   13 ar   
    26   12   77 1    
    27   13   14 ar   
    28   13   15 1    
    29   14   78 1    
    30   15   16 1    
    31   15   79 1    
    32   15   80 1    
    33   16   17 1    
    34   17   18 1    
    35   17   81 1    
    36   17   82 1    
    37   18   19 1    
    38   18   22 1    
    39   18   83 1    
    40   19   20 am   BACKBONE|DICT|INTERRES
    41   19   21 2    
    42   20   84 1    
    43   20   85 1    
    44   22   23 am   BACKBONE|DICT|INTERRES
    45   22   86 1    
    46   23   24 2    
    47   23   25 1    
    48   25   26 1    
    49   25   27 1    
    50   25   87 1    
    51   26   88 1    
    52   26   89 1    
    53   26   90 1    
    54   27   28 am   BACKBONE|DICT|INTERRES
    55   27   91 1    
    56   28   29 2    
    57   28   30 1    
    58   30   31 1    
    59   30   32 1    
    60   30   92 1    
    61   31   93 1    
    62   31   94 1    
    63   31   95 1    
    64   32   33 am   BACKBONE|DICT|INTERRES
    65   32   96 1    
    66   33   34 2    
    67   33   35 1    
    68   35   36 1    
    69   35   37 1    
    70   35   97 1    
    71   36   98 1    
    72   36   99 1    
    73   36  100 1    
    74   37   38 am   BACKBONE|DICT|INTERRES
    75   37  101 1    
    76   38   39 2    
    77   38   40 1    
    78   40   41 1    
    79   40   42 1    
    80   40  102 1    
    81   41  103 1    
    82   41  104 1    
    83   41  105 1    
    84   42   43 am   BACKBONE|DICT|INTERRES
    85   42  106 1    
    86   43   44 2    
    87   43   45 1    
    88   45   46 1    
    89   45   49 1    
    90   45  107 1    
    91   46   47 1    
    92   46  108 1    
    93   46  109 1    
    94   47   48 1    
    95   48  110 1    
    96   48  111 1    
    97   49   50 am   BACKBONE|DICT|INTERRES
    98   49  112 1    
    99   50   51 2    
   100   50   52 1    
   101   52   53 1    
   102   52   54 1    
   103   52  113 1    
   104   53  114 1    
   105   53  115 1    
   106   53  116 1    
   107   54   55 am   BACKBONE|DICT|INTERRES
   108   54  117 1    
   109   55   56 2    
   110   55   57 1    
   111   57   58 1    
   112   57   59 1    
   113   57  118 1    
   114   58  119 1    
   115   58  120 1    
   116   58  121 1    
   117   59   60 am   BACKBONE|DICT|INTERRES
   118   59  122 1    
   119   60   61 2    
   120   60   62 1    
   121   62   63 1    
   122   62   64 1    
   123   62  123 1    
   124   63  124 1    
   125   63  125 1    
   126   63  126 1    
   127   64   65 am   BACKBONE|DICT|INTERRES
   128   64  127 1    
   129   65   66 2    
@<TRIPOS>SUBSTRUCTURE
     1 UNK         1 GROUP             0       ****    0 ROOT    
