@<TRIPOS>MOLECULE
3R135
127   129    1
SMALL
USER_CHARGES


@<TRIPOS>ATOM
      1 CA        -83.7202   24.0117  -73.7764 C.3       0 UNK        -0.1998 
      2 C         -83.1879   25.4283  -73.9274 C.2       0 UNK         0.4909 
      3 O         -83.1202   25.9420  -75.0446 O.2       0 UNK        -0.5240 
      4 N         -82.8128   26.0682  -72.8125 N.am      1 UNK        -0.4739 
      5 CA        -82.2176   27.4081  -72.7820 C.3       1 UNK         0.0864 
      6 C6        -82.2294   28.0268  -71.3611 C.3       11 UNK        -0.0881 
      7 S7        -81.4915   26.9735  -70.0620 S.3       11 UNK        -0.2682 
      8 C8        -80.3376   28.1258  -69.2527 C.3       11 UNK         0.0289 
      9 C9        -79.0224   28.2609  -70.0076 C.ar      11 UNK        -0.0687 
     10 C10       -78.0681   27.2444  -69.9236 C.ar      11 UNK        -0.0823 
     11 C11       -76.8311   27.3784  -70.5575 C.ar      11 UNK        -0.0830 
     12 C12       -76.5510   28.5390  -71.2838 C.ar      11 UNK        -0.1021 
     13 C13       -77.4942   29.5719  -71.3770 C.ar      11 UNK        -0.0753 
     14 C14       -78.7322   29.4156  -70.7415 C.ar      11 UNK        -0.0933 
     15 C15       -77.2226   30.8821  -72.1209 C.3       11 UNK         0.0166 
     16 S16       -75.4847   31.1725  -72.6160 S.3       11 UNK        -0.2615 
     17 C17       -75.5180   30.9544  -74.4327 C.3       11 UNK        -0.0865 
     18 CA        -74.8128   29.6651  -74.9589 C.3       10 UNK         0.0862 
     19 C         -74.8543   29.5793  -76.5181 C.2       10 UNK         0.5551 
     20 N         -73.8147   29.0997  -77.1917 N.am      10 UNK        -0.7319 
     21 O         -75.8491   29.9535  -77.1334 O.2       10 UNK        -0.5018 
     22 N         -73.4722   29.4415  -74.3862 N.am      10 UNK        -0.4509 
     23 C         -72.4276   30.2781  -74.4690 C.2       10 UNK         0.4899 
     24 O         -72.4711   31.3980  -74.9791 O.2       10 UNK        -0.4839 
     25 CA        -71.0879   29.7765  -73.8994 C.3       9 UNK         0.0222 
     26 CB        -70.9425   30.2085  -72.4309 C.3       9 UNK        -0.1966 
     27 N         -70.8774   28.3268  -74.0014 N.am      9 UNK        -0.4218 
     28 C         -70.8795   27.6118  -75.1362 C.2       9 UNK         0.5020 
     29 O         -71.1111   28.0986  -76.2458 O.2       9 UNK        -0.5274 
     30 CA        -70.5568   26.1116  -75.0134 C.3       8 UNK         0.0270 
     31 CB        -70.9750   25.5019  -73.6585 C.3       8 UNK        -0.1976 
     32 N         -71.2391   25.3855  -76.0814 N.am      8 UNK        -0.4313 
     33 C         -70.6536   24.6478  -77.0330 C.2       8 UNK         0.5041 
     34 O         -69.4351   24.4790  -77.1103 O.2       8 UNK        -0.5577 
     35 CA        -71.5644   23.9479  -78.0631 C.3       7 UNK         0.0284 
     36 CB        -71.4647   22.4190  -77.9207 C.3       7 UNK        -0.1958 
     37 N         -72.9726   24.3355  -77.9507 N.am      7 UNK        -0.4454 
     38 C         -73.5148   25.4327  -78.4946 C.2       7 UNK         0.5089 
     39 O         -72.9042   26.2066  -79.2319 O.2       7 UNK        -0.5125 
     40 CA        -74.9875   25.7215  -78.1459 C.3       6 UNK         0.0408 
     41 CB        -75.9113   25.2091  -79.2615 C.3       6 UNK        -0.1791 
     42 N         -75.4324   25.1710  -76.8588 N.am      6 UNK        -0.4762 
     43 C         -74.9238   25.4870  -75.6560 C.2       6 UNK         0.5007 
     44 O         -73.9479   26.2236  -75.5110 O.2       6 UNK        -0.5032 
     45 CA        -75.5960   24.8684  -74.4144 C.3       5 UNK         0.0783 
     46 C46       -75.4710   25.7850  -73.1724 C.3       11 UNK        -0.0857 
     47 S47       -76.0428   24.9603  -71.6513 S.3       11 UNK        -0.2512 
     48 C48       -75.7868   26.2798  -70.4285 C.3       11 UNK         0.0225 
     49 N         -76.9958   24.5561  -74.7055 N.am      5 UNK        -0.4615 
     50 C         -77.5570   23.3429  -74.6435 C.2       4 UNK         0.5053 
     51 O         -76.9356   22.3140  -74.3773 O.2       4 UNK        -0.5105 
     52 CA        -79.0670   23.2511  -74.9314 C.3       4 UNK         0.0263 
     53 CB        -79.8504   23.0458  -73.6245 C.3       4 UNK        -0.1981 
     54 N         -79.5841   24.4299  -75.6341 N.am      4 UNK        -0.4224 
     55 C         -79.3793   24.6671  -76.9391 C.2       3 UNK         0.4895 
     56 O         -78.7996   23.8799  -77.6875 O.2       3 UNK        -0.5091 
     57 CA        -79.8639   26.0114  -77.5114 C.3       3 UNK         0.0250 
     58 CB        -81.2256   25.8420  -78.2032 C.3       3 UNK        -0.1996 
     59 N         -79.9514   27.0888  -76.5227 N.am      3 UNK        -0.4254 
     60 C         -78.9095   27.6123  -75.8589 C.2       2 UNK         0.5004 
     61 O         -77.7496   27.2269  -75.9885 O.2       2 UNK        -0.5226 
     62 CA        -79.2246   28.7176  -74.8364 C.3       2 UNK         0.0269 
     63 CB        -79.2694   30.0841  -75.5397 C.3       2 UNK        -0.1926 
     64 N         -80.4824   28.5173  -74.1073 N.am      2 UNK        -0.4687 
     65 C         -80.8128   27.4151  -73.4185 C.2       1 UNK         0.5165 
     66 O         -80.0785   26.4304  -73.3098 O.2       1 UNK        -0.5079 
     67 H67       -83.2629   23.3565  -74.5171 H         1 UNK         0.0900 
     68 H68       -84.7985   23.9988  -73.9317 H         1 UNK         0.0900 
     69 H69       -83.5111   23.6033  -72.7878 H         1 UNK         0.0900 
     70 H70       -82.8465   25.5945  -71.9207 H         1 UNK         0.2959 
     71 H71       -82.8517   28.0401  -73.4085 H         1 UNK         0.1079 
     72 H72       -81.7456   29.0051  -71.3698 H         1 UNK         0.0837 
     73 H73       -83.2620   28.2220  -71.0674 H         1 UNK         0.0837 
     74 H74       -80.8162   29.0974  -69.1207 H         1 UNK         0.0685 
     75 H75       -80.1310   27.7565  -68.2471 H         1 UNK         0.0685 
     76 H76       -78.2867   26.3506  -69.3551 H         1 UNK         0.1434 
     77 H77       -75.5874   28.6293  -71.7633 H         1 UNK         0.1329 
     78 H78       -79.4647   30.2093  -70.7983 H         1 UNK         0.1335 
     79 H79       -77.5083   31.7089  -71.4689 H         1 UNK         0.0680 
     80 H80       -77.8829   30.9448  -72.9839 H         1 UNK         0.0680 
     81 H81       -75.0525   31.8379  -74.8721 H         1 UNK         0.1032 
     82 H82       -76.5501   30.9815  -74.7790 H         1 UNK         0.1032 
     83 H83       -75.4088   28.8168  -74.6203 H         1 UNK         0.0461 
     84 H84       -73.8581   29.0516  -78.1960 H         1 UNK         0.3453 
     85 H85       -72.9863   28.7696  -76.7090 H         1 UNK         0.3453 
     86 H86       -73.3159   28.5244  -73.9960 H         1 UNK         0.2984 
     87 H87       -70.2932   30.2562  -74.4744 H         1 UNK         0.0554 
     88 H88       -69.9570   29.9604  -72.0365 H         1 UNK         0.0847 
     89 H89       -71.6911   29.7349  -71.7943 H         1 UNK         0.0847 
     90 H90       -71.0668   31.2877  -72.3282 H         1 UNK         0.0847 
     91 H91       -70.6788   27.8412  -73.1387 H         1 UNK         0.3141 
     92 H92       -69.4744   26.0141  -75.1165 H         1 UNK         0.0743 
     93 H93       -70.3929   25.9133  -72.8334 H         1 UNK         0.0784 
     94 H94       -72.0305   25.6742  -73.4450 H         1 UNK         0.0784 
     95 H95       -70.8105   24.4241  -73.6485 H         1 UNK         0.0784 
     96 H96       -72.2386   25.5616  -76.1368 H         1 UNK         0.3213 
     97 H97       -71.1990   24.2217  -79.0554 H         1 UNK         0.0855 
     98 H98       -70.4351   22.0806  -78.0462 H         1 UNK         0.0814 
     99 H99       -72.0636   21.9095  -78.6758 H         1 UNK         0.0814 
    100 H100      -71.8003   22.0814  -76.9394 H         1 UNK         0.0814 
    101 H101      -73.5613   23.7576  -77.3686 H         1 UNK         0.3105 
    102 H102      -75.1020   26.8049  -78.0888 H         1 UNK         0.0547 
    103 H103      -75.6095   25.6038  -80.2327 H         1 UNK         0.0837 
    104 H104      -75.8968   24.1208  -79.3316 H         1 UNK         0.0837 
    105 H105      -76.9419   25.5212  -79.0957 H         1 UNK         0.0837 
    106 H106      -76.2433   24.5683  -76.8834 H         1 UNK         0.3020 
    107 H107      -75.0397   23.9506  -74.2113 H         1 UNK         0.1245 
    108 H108      -76.0485   26.6981  -73.3250 H         1 UNK         0.0781 
    109 H109      -74.4369   26.0910  -73.0069 H         1 UNK         0.0781 
    110 H110      -74.7802   26.6882  -70.5313 H         1 UNK         0.0836 
    111 H111      -75.8346   25.8454  -69.4288 H         1 UNK         0.0836 
    112 H112      -77.5645   25.3516  -74.9734 H         1 UNK         0.3022 
    113 H113      -79.2280   22.3737  -75.5615 H         1 UNK         0.0747 
    114 H114      -80.9189   22.9499  -73.8114 H         1 UNK         0.0793 
    115 H115      -79.5284   22.1350  -73.1181 H         1 UNK         0.0793 
    116 H116      -79.7008   23.8711  -72.9278 H         1 UNK         0.0793 
    117 H117      -80.0207   25.1444  -75.0618 H         1 UNK         0.3047 
    118 H118      -79.1369   26.3213  -78.2648 H         1 UNK         0.0822 
    119 H119      -81.5441   26.7652  -78.6874 H         1 UNK         0.0807 
    120 H120      -82.0028   25.5460  -77.4978 H         1 UNK         0.0807 
    121 H121      -81.1776   25.0729  -78.9756 H         1 UNK         0.0807 
    122 H122      -80.8755   27.4424  -76.3183 H         1 UNK         0.2946 
    123 H123      -78.4135   28.7187  -74.1049 H         1 UNK         0.1144 
    124 H124      -79.3710   30.9018  -74.8269 H         1 UNK         0.0793 
    125 H125      -80.1029   30.1488  -76.2402 H         1 UNK         0.0793 
    126 H126      -78.3587   30.2609  -76.1125 H         1 UNK         0.0793 
    127 H127      -81.1452   29.2783  -74.1503 H         1 UNK         0.2896 
@<TRIPOS>BOND
     1    1    2 1    
     2    1   67 1    
     3    1   68 1    
     4    1   69 1    
     5    2    3 2    
     6    2    4 am   BACKBONE|DICT|INTERRES
     7    4    5 1    
     8    4   70 1    
     9    5    6 1    
    10    5   65 1    
    11    5   71 1    
    12    6    7 1    
    13    6   72 1    
    14    6   73 1    
    15    7    8 1    
    16    8    9 1    
    17    8   74 1    
    18    8   75 1    
    19    9   10 ar   
    20    9   14 ar   
    21   10   11 ar   
    22   10   76 1    
    23   11   12 ar   
    24   11   48 1    
    25   12   13 ar   
    26   12   77 1    
    27   13   14 ar   
    28   13   15 1    
    29   14   78 1    
    30   15   16 1    
    31   15   79 1    
    32   15   80 1    
    33   16   17 1    
    34   17   18 1    
    35   17   81 1    
    36   17   82 1    
    37   18   19 1    
    38   18   22 1    
    39   18   83 1    
    40   19   20 am   BACKBONE|DICT|INTERRES
    41   19   21 2    
    42   20   84 1    
    43   20   85 1    
    44   22   23 am   BACKBONE|DICT|INTERRES
    45   22   86 1    
    46   23   24 2    
    47   23   25 1    
    48   25   26 1    
    49   25   27 1    
    50   25   87 1    
    51   26   88 1    
    52   26   89 1    
    53   26   90 1    
    54   27   28 am   BACKBONE|DICT|INTERRES
    55   27   91 1    
    56   28   29 2    
    57   28   30 1    
    58   30   31 1    
    59   30   32 1    
    60   30   92 1    
    61   31   93 1    
    62   31   94 1    
    63   31   95 1    
    64   32   33 am   BACKBONE|DICT|INTERRES
    65   32   96 1    
    66   33   34 2    
    67   33   35 1    
    68   35   36 1    
    69   35   37 1    
    70   35   97 1    
    71   36   98 1    
    72   36   99 1    
    73   36  100 1    
    74   37   38 am   BACKBONE|DICT|INTERRES
    75   37  101 1    
    76   38   39 2    
    77   38   40 1    
    78   40   41 1    
    79   40   42 1    
    80   40  102 1    
    81   41  103 1    
    82   41  104 1    
    83   41  105 1    
    84   42   43 am   BACKBONE|DICT|INTERRES
    85   42  106 1    
    86   43   44 2    
    87   43   45 1    
    88   45   46 1    
    89   45   49 1    
    90   45  107 1    
    91   46   47 1    
    92   46  108 1    
    93   46  109 1    
    94   47   48 1    
    95   48  110 1    
    96   48  111 1    
    97   49   50 am   BACKBONE|DICT|INTERRES
    98   49  112 1    
    99   50   51 2    
   100   50   52 1    
   101   52   53 1    
   102   52   54 1    
   103   52  113 1    
   104   53  114 1    
   105   53  115 1    
   106   53  116 1    
   107   54   55 am   BACKBONE|DICT|INTERRES
   108   54  117 1    
   109   55   56 2    
   110   55   57 1    
   111   57   58 1    
   112   57   59 1    
   113   57  118 1    
   114   58  119 1    
   115   58  120 1    
   116   58  121 1    
   117   59   60 am   BACKBONE|DICT|INTERRES
   118   59  122 1    
   119   60   61 2    
   120   60   62 1    
   121   62   63 1    
   122   62   64 1    
   123   62  123 1    
   124   63  124 1    
   125   63  125 1    
   126   63  126 1    
   127   64   65 am   BACKBONE|DICT|INTERRES
   128   64  127 1    
   129   65   66 2    
@<TRIPOS>SUBSTRUCTURE
     1 UNK         1 GROUP             0       ****    0 ROOT    
