@<TRIPOS>MOLECULE
3R135
127   129    1
SMALL
USER_CHARGES


@<TRIPOS>ATOM
      1 CA        -84.1081   24.2301  -73.9057 C.3       0 UNK        -0.1998 
      2 C         -83.4361   25.5249  -73.4732 C.2       0 UNK         0.4909 
      3 O         -83.8907   26.6056  -73.8493 O.2       0 UNK        -0.5240 
      4 N         -82.3610   25.4231  -72.6827 N.am      1 UNK        -0.4739 
      5 CA        -81.5530   26.5580  -72.2303 C.3       1 UNK         0.0864 
      6 C6        -80.8574   26.2397  -70.8821 C.3       11 UNK        -0.0881 
      7 S7        -80.5623   27.7377  -69.8850 S.3       11 UNK        -0.2682 
      8 C8        -78.8055   27.5623  -69.4381 C.3       11 UNK         0.0289 
      9 C9        -77.8773   28.0071  -70.5589 C.ar      11 UNK        -0.0687 
     10 C10       -77.1306   27.0710  -71.2824 C.ar      11 UNK        -0.0823 
     11 C11       -76.2521   27.4895  -72.2875 C.ar      11 UNK        -0.0830 
     12 C12       -76.1277   28.8534  -72.5679 C.ar      11 UNK        -0.1021 
     13 C13       -76.8658   29.7977  -71.8484 C.ar      11 UNK        -0.0753 
     14 C14       -77.7377   29.3686  -70.8448 C.ar      11 UNK        -0.0933 
     15 C15       -76.7224   31.2779  -72.1638 C.3       11 UNK         0.0166 
     16 S16       -75.1135   31.9144  -71.5993 S.3       11 UNK        -0.2615 
     17 C17       -74.6232   32.9356  -73.0312 C.3       11 UNK        -0.0865 
     18 CA        -74.0810   32.0939  -74.2188 C.3       10 UNK         0.0862 
     19 C         -73.7653   32.9915  -75.4508 C.2       10 UNK         0.5551 
     20 N         -72.5496   32.9891  -75.9842 N.am      10 UNK        -0.7319 
     21 O         -74.6453   33.6973  -75.9370 O.2       10 UNK        -0.5018 
     22 N         -72.9747   31.2107  -73.8091 N.am      10 UNK        -0.4509 
     23 C         -72.7161   30.0192  -74.3573 C.2       10 UNK         0.4899 
     24 O         -73.3879   29.5119  -75.2585 O.2       10 UNK        -0.4839 
     25 CA        -71.5118   29.2634  -73.7854 C.3       9 UNK         0.0222 
     26 CB        -71.8362   28.6400  -72.4151 C.3       9 UNK        -0.1966 
     27 N         -71.1178   28.2198  -74.7267 N.am      9 UNK        -0.4218 
     28 C         -69.8824   27.7448  -74.9031 C.2       9 UNK         0.5020 
     29 O         -68.9129   28.0921  -74.2251 O.2       9 UNK        -0.5274 
     30 CA        -69.7117   26.6944  -76.0183 C.3       8 UNK         0.0270 
     31 CB        -68.2333   26.3646  -76.3010 C.3       8 UNK        -0.1976 
     32 N         -70.4228   25.4523  -75.7057 N.am      8 UNK        -0.4313 
     33 C         -71.7411   25.2633  -75.8349 C.2       8 UNK         0.5041 
     34 O         -72.5232   26.1324  -76.2307 O.2       8 UNK        -0.5577 
     35 CA        -72.2713   23.8857  -75.4225 C.3       7 UNK         0.0284 
     36 CB        -72.5053   23.8327  -73.9036 C.3       7 UNK        -0.1958 
     37 N         -73.5394   23.6325  -76.1022 N.am      7 UNK        -0.4454 
     38 C         -73.7981   22.5972  -76.9094 C.2       7 UNK         0.5089 
     39 O         -72.9819   21.7102  -77.1680 O.2       7 UNK        -0.5125 
     40 CA        -75.2129   22.5477  -77.5257 C.3       6 UNK         0.0408 
     41 CB        -75.5722   21.1601  -78.0970 C.3       6 UNK        -0.1791 
     42 N         -76.2613   23.0144  -76.6099 N.am      6 UNK        -0.4762 
     43 C         -76.5634   22.5198  -75.3959 C.2       6 UNK         0.5007 
     44 O         -75.9985   21.5509  -74.8864 O.2       6 UNK        -0.5032 
     45 CA        -77.6802   23.2343  -74.6011 C.3       5 UNK         0.0783 
     46 C46       -77.0805   24.2630  -73.6061 C.3       11 UNK        -0.0857 
     47 S47       -76.3371   25.7248  -74.4231 S.3       11 UNK        -0.2512 
     48 C48       -75.4117   26.4793  -73.0540 C.3       11 UNK         0.0225 
     49 N         -78.6988   23.8611  -75.4454 N.am      5 UNK        -0.4615 
     50 C         -79.4553   23.2698  -76.3779 C.2       4 UNK         0.5053 
     51 O         -79.4891   22.0541  -76.5681 O.2       4 UNK        -0.5105 
     52 CA        -80.2909   24.2013  -77.2765 C.3       4 UNK         0.0263 
     53 CB        -81.7293   24.3044  -76.7501 C.3       4 UNK        -0.1981 
     54 N         -79.7333   25.5531  -77.4046 N.am      4 UNK        -0.4224 
     55 C         -78.5346   25.8690  -77.9142 C.2       3 UNK         0.4895 
     56 O         -77.7541   25.0406  -78.3844 O.2       3 UNK        -0.5091 
     57 CA        -78.1042   27.3459  -77.8463 C.3       3 UNK         0.0250 
     58 CB        -78.7332   28.1702  -78.9867 C.3       3 UNK        -0.1996 
     59 N         -78.3155   27.9688  -76.5299 N.am      3 UNK        -0.4254 
     60 C         -79.4707   28.2537  -75.9114 C.2       2 UNK         0.5004 
     61 O         -80.5859   28.0894  -76.4126 O.2       2 UNK        -0.5226 
     62 CA        -79.3525   28.8001  -74.4781 C.3       2 UNK         0.0269 
     63 CB        -79.4740   30.3321  -74.4759 C.3       2 UNK        -0.1926 
     64 N         -80.3413   28.2386  -73.5518 N.am      2 UNK        -0.4687 
     65 C         -80.5298   26.9320  -73.3191 C.2       1 UNK         0.5165 
     66 O         -79.9143   26.0331  -73.8964 O.2       1 UNK        -0.5079 
     67 H67       -83.5131   23.3553  -73.6436 H         1 UNK         0.0900 
     68 H68       -84.2576   24.2253  -74.9850 H         1 UNK         0.0900 
     69 H69       -85.0826   24.1361  -73.4275 H         1 UNK         0.0900 
     70 H70       -82.0030   24.5096  -72.4433 H         1 UNK         0.2959 
     71 H71       -82.2269   27.4052  -72.0807 H         1 UNK         0.1079 
     72 H72       -81.4954   25.5950  -70.2751 H         1 UNK         0.0837 
     73 H73       -79.9317   25.6791  -71.0285 H         1 UNK         0.0837 
     74 H74       -78.6101   28.1737  -68.5559 H         1 UNK         0.0685 
     75 H75       -78.6010   26.5325  -69.1412 H         1 UNK         0.0685 
     76 H76       -77.2234   26.0181  -71.0562 H         1 UNK         0.1434 
     77 H77       -75.4495   29.1850  -73.3421 H         1 UNK         0.1329 
     78 H78       -78.3099   30.0931  -70.2814 H         1 UNK         0.1335 
     79 H79       -76.8390   31.4210  -73.2382 H         1 UNK         0.0680 
     80 H80       -77.5174   31.8577  -71.6923 H         1 UNK         0.0680 
     81 H81       -73.8661   33.6470  -72.6967 H         1 UNK         0.1032 
     82 H82       -75.4818   33.5361  -73.3391 H         1 UNK         0.1032 
     83 H83       -74.9015   31.4552  -74.5497 H         1 UNK         0.0461 
     84 H84       -72.3592   33.5716  -76.7844 H         1 UNK         0.3453 
     85 H85       -71.8231   32.4098  -75.5959 H         1 UNK         0.3453 
     86 H86       -72.3829   31.5551  -73.0672 H         1 UNK         0.2984 
     87 H87       -70.6923   29.9767  -73.6742 H         1 UNK         0.0554 
     88 H88       -70.9614   28.1502  -71.9871 H         1 UNK         0.0847 
     89 H89       -72.6302   27.8976  -72.4864 H         1 UNK         0.0847 
     90 H90       -72.1626   29.3978  -71.7017 H         1 UNK         0.0847 
     91 H91       -71.8638   27.8744  -75.3282 H         1 UNK         0.3141 
     92 H92       -70.1336   27.1205  -76.9315 H         1 UNK         0.0743 
     93 H93       -67.7441   25.9166  -75.4351 H         1 UNK         0.0784 
     94 H94       -68.1341   25.6730  -77.1379 H         1 UNK         0.0784 
     95 H95       -67.6755   27.2655  -76.5607 H         1 UNK         0.0784 
     96 H96       -69.8609   24.7010  -75.3307 H         1 UNK         0.3213 
     97 H97       -71.5293   23.1325  -75.6966 H         1 UNK         0.0855 
     98 H98       -73.2058   24.6012  -73.5781 H         1 UNK         0.0814 
     99 H99       -71.5751   23.9850  -73.3548 H         1 UNK         0.0814 
    100 H100      -72.9069   22.8657  -73.5996 H         1 UNK         0.0814 
    101 H101      -74.2365   24.3592  -76.0054 H         1 UNK         0.3105 
    102 H102      -75.2053   23.2533  -78.3576 H         1 UNK         0.0547 
    103 H103      -74.8728   20.8657  -78.8803 H         1 UNK         0.0837 
    104 H104      -75.5443   20.3866  -77.3289 H         1 UNK         0.0837 
    105 H105      -76.5693   21.1594  -78.5374 H         1 UNK         0.0837 
    106 H106      -76.8034   23.8045  -76.9446 H         1 UNK         0.3020 
    107 H107      -78.1881   22.4600  -74.0223 H         1 UNK         0.1245 
    108 H108      -76.3324   23.7841  -72.9712 H         1 UNK         0.0781 
    109 H109      -77.8618   24.6122  -72.9303 H         1 UNK         0.0781 
    110 H110      -74.5337   26.9687  -73.4770 H         1 UNK         0.0836 
    111 H111      -75.0339   25.7124  -72.3768 H         1 UNK         0.0836 
    112 H112      -78.8287   24.8544  -75.2892 H         1 UNK         0.3022 
    113 H113      -80.3157   23.7573  -78.2735 H         1 UNK         0.0747 
    114 H114      -82.3617   24.8774  -77.4284 H         1 UNK         0.0793 
    115 H115      -82.1806   23.3174  -76.6393 H         1 UNK         0.0793 
    116 H116      -81.7557   24.7910  -75.7753 H         1 UNK         0.0793 
    117 H117      -80.2836   26.3190  -77.0225 H         1 UNK         0.3047 
    118 H118      -77.0236   27.3577  -77.9990 H         1 UNK         0.0822 
    119 H119      -78.3820   29.2019  -78.9697 H         1 UNK         0.0807 
    120 H120      -79.8220   28.1857  -78.9331 H         1 UNK         0.0807 
    121 H121      -78.4655   27.7526  -79.9582 H         1 UNK         0.0807 
    122 H122      -77.4638   28.1158  -76.0052 H         1 UNK         0.2946 
    123 H123      -78.3728   28.5228  -74.0880 H         1 UNK         0.1144 
    124 H124      -79.3604   30.7395  -73.4714 H         1 UNK         0.0793 
    125 H125      -80.4409   30.6578  -74.8618 H         1 UNK         0.0793 
    126 H126      -78.7033   30.7865  -75.0998 H         1 UNK         0.0793 
    127 H127      -80.8950   28.9047  -73.0342 H         1 UNK         0.2896 
@<TRIPOS>BOND
     1    1    2 1    
     2    1   67 1    
     3    1   68 1    
     4    1   69 1    
     5    2    3 2    
     6    2    4 am   BACKBONE|DICT|INTERRES
     7    4    5 1    
     8    4   70 1    
     9    5    6 1    
    10    5   65 1    
    11    5   71 1    
    12    6    7 1    
    13    6   72 1    
    14    6   73 1    
    15    7    8 1    
    16    8    9 1    
    17    8   74 1    
    18    8   75 1    
    19    9   10 ar   
    20    9   14 ar   
    21   10   11 ar   
    22   10   76 1    
    23   11   12 ar   
    24   11   48 1    
    25   12   13 ar   
    26   12   77 1    
    27   13   14 ar   
    28   13   15 1    
    29   14   78 1    
    30   15   16 1    
    31   15   79 1    
    32   15   80 1    
    33   16   17 1    
    34   17   18 1    
    35   17   81 1    
    36   17   82 1    
    37   18   19 1    
    38   18   22 1    
    39   18   83 1    
    40   19   20 am   BACKBONE|DICT|INTERRES
    41   19   21 2    
    42   20   84 1    
    43   20   85 1    
    44   22   23 am   BACKBONE|DICT|INTERRES
    45   22   86 1    
    46   23   24 2    
    47   23   25 1    
    48   25   26 1    
    49   25   27 1    
    50   25   87 1    
    51   26   88 1    
    52   26   89 1    
    53   26   90 1    
    54   27   28 am   BACKBONE|DICT|INTERRES
    55   27   91 1    
    56   28   29 2    
    57   28   30 1    
    58   30   31 1    
    59   30   32 1    
    60   30   92 1    
    61   31   93 1    
    62   31   94 1    
    63   31   95 1    
    64   32   33 am   BACKBONE|DICT|INTERRES
    65   32   96 1    
    66   33   34 2    
    67   33   35 1    
    68   35   36 1    
    69   35   37 1    
    70   35   97 1    
    71   36   98 1    
    72   36   99 1    
    73   36  100 1    
    74   37   38 am   BACKBONE|DICT|INTERRES
    75   37  101 1    
    76   38   39 2    
    77   38   40 1    
    78   40   41 1    
    79   40   42 1    
    80   40  102 1    
    81   41  103 1    
    82   41  104 1    
    83   41  105 1    
    84   42   43 am   BACKBONE|DICT|INTERRES
    85   42  106 1    
    86   43   44 2    
    87   43   45 1    
    88   45   46 1    
    89   45   49 1    
    90   45  107 1    
    91   46   47 1    
    92   46  108 1    
    93   46  109 1    
    94   47   48 1    
    95   48  110 1    
    96   48  111 1    
    97   49   50 am   BACKBONE|DICT|INTERRES
    98   49  112 1    
    99   50   51 2    
   100   50   52 1    
   101   52   53 1    
   102   52   54 1    
   103   52  113 1    
   104   53  114 1    
   105   53  115 1    
   106   53  116 1    
   107   54   55 am   BACKBONE|DICT|INTERRES
   108   54  117 1    
   109   55   56 2    
   110   55   57 1    
   111   57   58 1    
   112   57   59 1    
   113   57  118 1    
   114   58  119 1    
   115   58  120 1    
   116   58  121 1    
   117   59   60 am   BACKBONE|DICT|INTERRES
   118   59  122 1    
   119   60   61 2    
   120   60   62 1    
   121   62   63 1    
   122   62   64 1    
   123   62  123 1    
   124   63  124 1    
   125   63  125 1    
   126   63  126 1    
   127   64   65 am   BACKBONE|DICT|INTERRES
   128   64  127 1    
   129   65   66 2    
@<TRIPOS>SUBSTRUCTURE
     1 UNK         1 GROUP             0       ****    0 ROOT    
