@<TRIPOS>MOLECULE
3R135
127   129    1
SMALL
USER_CHARGES


@<TRIPOS>ATOM
      1 CA        -83.0598   28.7293  -70.4530 C.3       0 UNK        -0.1998 
      2 C         -83.6264   28.2586  -71.7840 C.2       0 UNK         0.4909 
      3 O         -84.6548   27.5825  -71.8093 O.2       0 UNK        -0.5240 
      4 N         -82.9585   28.6083  -72.8914 N.am      1 UNK        -0.4739 
      5 CA        -83.3347   28.2289  -74.2609 C.3       1 UNK         0.0864 
      6 C6        -82.7361   29.2094  -75.3061 C.3       11 UNK        -0.0881 
      7 S7        -80.9253   29.0990  -75.5224 S.3       11 UNK        -0.2682 
      8 C8        -80.2952   30.2708  -74.2795 C.3       11 UNK         0.0289 
      9 C9        -79.0546   29.7208  -73.5876 C.ar      11 UNK        -0.0687 
     10 C10       -79.1465   28.5786  -72.7844 C.ar      11 UNK        -0.0823 
     11 C11       -78.0163   28.0686  -72.1416 C.ar      11 UNK        -0.0830 
     12 C12       -76.7922   28.7178  -72.2962 C.ar      11 UNK        -0.1021 
     13 C13       -76.6728   29.8460  -73.1119 C.ar      11 UNK        -0.0753 
     14 C14       -77.8134   30.3457  -73.7513 C.ar      11 UNK        -0.0933 
     15 C15       -75.3116   30.4855  -73.3700 C.3       11 UNK         0.0166 
     16 S16       -74.3804   30.9019  -71.8558 S.3       11 UNK        -0.2615 
     17 C17       -73.3377   29.4218  -71.5812 C.3       11 UNK        -0.0865 
     18 CA        -71.9574   29.5253  -72.2747 C.3       10 UNK         0.0862 
     19 C         -70.9985   28.4190  -71.7685 C.2       10 UNK         0.5551 
     20 N         -70.0025   28.7756  -70.9698 N.am      10 UNK        -0.7319 
     21 O         -71.1760   27.2378  -72.0592 O.2       10 UNK        -0.5018 
     22 N         -72.1037   29.4139  -73.7277 N.am      10 UNK        -0.4509 
     23 C         -71.4355   30.1401  -74.6286 C.2       10 UNK         0.4899 
     24 O         -70.6369   31.0335  -74.3405 O.2       10 UNK        -0.4839 
     25 CA        -71.7237   29.8020  -76.1028 C.3       9 UNK         0.0222 
     26 CB        -70.7751   30.5137  -77.0910 C.3       9 UNK        -0.1966 
     27 N         -71.7539   28.3559  -76.3469 N.am      9 UNK        -0.4218 
     28 C         -70.7519   27.4765  -76.1795 C.2       9 UNK         0.5020 
     29 O         -69.6156   27.7897  -75.8209 O.2       9 UNK        -0.5274 
     30 CA        -71.0547   25.9876  -76.4446 C.3       8 UNK         0.0270 
     31 CB        -71.0321   25.1964  -75.1259 C.3       8 UNK        -0.1976 
     32 N         -72.3361   25.7505  -77.1137 N.am      8 UNK        -0.4313 
     33 C         -72.6152   26.0538  -78.3884 C.2       8 UNK         0.5041 
     34 O         -71.7874   26.4931  -79.1869 O.2       8 UNK        -0.5577 
     35 CA        -74.0785   25.8835  -78.8302 C.3       7 UNK         0.0284 
     36 CB        -74.3400   24.4485  -79.3154 C.3       7 UNK        -0.1958 
     37 N         -75.0349   26.2338  -77.7735 N.am      7 UNK        -0.4454 
     38 C         -75.2225   27.4718  -77.2914 C.2       7 UNK         0.5089 
     39 O         -74.6041   28.4605  -77.6835 O.2       7 UNK        -0.5125 
     40 CA        -76.2439   27.6240  -76.1532 C.3       6 UNK         0.0408 
     41 CB        -77.6740   27.6702  -76.7053 C.3       6 UNK        -0.1791 
     42 N         -76.1445   26.5496  -75.1672 N.am      6 UNK        -0.4762 
     43 C         -75.1124   26.3730  -74.3307 C.2       6 UNK         0.5007 
     44 O         -74.1458   27.1362  -74.2614 O.2       6 UNK        -0.5032 
     45 CA        -75.1355   25.0829  -73.4835 C.3       5 UNK         0.0783 
     46 C46       -75.8589   25.2608  -72.1234 C.3       11 UNK        -0.0857 
     47 S47       -77.6856   25.3163  -72.2290 S.3       11 UNK        -0.2512 
     48 C48       -78.1117   26.8152  -71.2849 C.3       11 UNK         0.0225 
     49 N         -75.6398   23.9267  -74.2380 N.am      5 UNK        -0.4615 
     50 C         -75.0486   23.4064  -75.3194 C.2       4 UNK         0.5053 
     51 O         -74.0088   23.8537  -75.7998 O.2       4 UNK        -0.5105 
     52 CA        -75.7336   22.2197  -76.0144 C.3       4 UNK         0.0263 
     53 CB        -75.5587   20.9157  -75.2107 C.3       4 UNK        -0.1981 
     54 N         -77.1357   22.4658  -76.3824 N.am      4 UNK        -0.4224 
     55 C         -78.2041   22.5794  -75.5809 C.2       3 UNK         0.4895 
     56 O         -78.1572   22.4993  -74.3513 O.2       3 UNK        -0.5091 
     57 CA        -79.5523   22.7773  -76.2980 C.3       3 UNK         0.0250 
     58 CB        -80.0088   21.4654  -76.9605 C.3       3 UNK        -0.1996 
     59 N         -80.6037   23.2257  -75.3844 N.am      3 UNK        -0.4254 
     60 C         -80.7234   24.4691  -74.9039 C.2       2 UNK         0.5004 
     61 O         -79.9868   25.4046  -75.2246 O.2       2 UNK        -0.5226 
     62 CA        -81.8493   24.6736  -73.8750 C.3       2 UNK         0.0269 
     63 CB        -81.4229   24.1584  -72.4899 C.3       2 UNK        -0.1926 
     64 N         -82.2396   26.0766  -73.7464 N.am      2 UNK        -0.4687 
     65 C         -83.0446   26.7417  -74.5870 C.2       1 UNK         0.5165 
     66 O         -83.5753   26.2235  -75.5714 O.2       1 UNK        -0.5079 
     67 H67       -82.8366   27.8733  -69.8168 H         1 UNK         0.0900 
     68 H68       -82.1434   29.3058  -70.5790 H         1 UNK         0.0900 
     69 H69       -83.7864   29.3566  -69.9373 H         1 UNK         0.0900 
     70 H70       -82.1302   29.1782  -72.8123 H         1 UNK         0.2959 
     71 H71       -84.4206   28.3299  -74.3284 H         1 UNK         0.1079 
     72 H72       -83.1913   29.0215  -76.2803 H         1 UNK         0.0837 
     73 H73       -83.0074   30.2369  -75.0580 H         1 UNK         0.0837 
     74 H74       -80.0792   31.2194  -74.7734 H         1 UNK         0.0685 
     75 H75       -81.0535   30.4881  -73.5279 H         1 UNK         0.0685 
     76 H76       -80.0947   28.0740  -72.6747 H         1 UNK         0.1434 
     77 H77       -75.9290   28.3219  -71.7920 H         1 UNK         0.1329 
     78 H78       -77.7331   31.2143  -74.3904 H         1 UNK         0.1335 
     79 H79       -74.7265   29.8195  -74.0021 H         1 UNK         0.0680 
     80 H80       -75.4346   31.4066  -73.9415 H         1 UNK         0.0680 
     81 H81       -73.2126   29.3199  -70.5013 H         1 UNK         0.1032 
     82 H82       -73.8436   28.5156  -71.9097 H         1 UNK         0.1032 
     83 H83       -71.5279   30.4969  -72.0207 H         1 UNK         0.0461 
     84 H84       -69.8547   29.7413  -70.7197 H         1 UNK         0.3453 
     85 H85       -69.3783   28.0661  -70.6189 H         1 UNK         0.3453 
     86 H86       -72.6953   28.6532  -74.0457 H         1 UNK         0.2984 
     87 H87       -72.7339   30.1618  -76.3034 H         1 UNK         0.0554 
     88 H88       -70.8519   31.5972  -76.9930 H         1 UNK         0.0847 
     89 H89       -71.0195   30.2643  -78.1235 H         1 UNK         0.0847 
     90 H90       -69.7322   30.2463  -76.9186 H         1 UNK         0.0847 
     91 H91       -72.6489   27.9932  -76.6509 H         1 UNK         0.3141 
     92 H92       -70.2609   25.6045  -77.0891 H         1 UNK         0.0743 
     93 H93       -71.8071   25.5397  -74.4393 H         1 UNK         0.0784 
     94 H94       -71.1835   24.1306  -75.2976 H         1 UNK         0.0784 
     95 H95       -70.0748   25.3103  -74.6154 H         1 UNK         0.0784 
     96 H96       -73.0572   25.2942  -76.5585 H         1 UNK         0.3213 
     97 H97       -74.2490   26.5617  -79.6694 H         1 UNK         0.0855 
     98 H98       -74.1675   23.7149  -78.5280 H         1 UNK         0.0814 
     99 H99       -73.6772   24.1941  -80.1436 H         1 UNK         0.0814 
    100 H100      -75.3627   24.3281  -79.6728 H         1 UNK         0.0814 
    101 H101      -75.5597   25.4778  -77.3610 H         1 UNK         0.3105 
    102 H102      -76.0457   28.5694  -75.6465 H         1 UNK         0.0547 
    103 H103      -77.8086   28.5176  -77.3783 H         1 UNK         0.0837 
    104 H104      -77.9324   26.7650  -77.2559 H         1 UNK         0.0837 
    105 H105      -78.3945   27.7792  -75.8957 H         1 UNK         0.0837 
    106 H106      -76.9166   25.8993  -75.1144 H         1 UNK         0.3020 
    107 H107      -74.0881   24.8690  -73.2568 H         1 UNK         0.1245 
    108 H108      -75.4771   26.1356  -71.5973 H         1 UNK         0.0781 
    109 H109      -75.6079   24.4159  -71.4804 H         1 UNK         0.0781 
    110 H110      -77.4700   26.9005  -70.4066 H         1 UNK         0.0836 
    111 H111      -79.1278   26.7060  -70.9030 H         1 UNK         0.0836 
    112 H112      -76.5241   23.5273  -73.9342 H         1 UNK         0.3022 
    113 H113      -75.2111   22.0752  -76.9613 H         1 UNK         0.0747 
    114 H114      -75.9906   20.0650  -75.7378 H         1 UNK         0.0793 
    115 H115      -74.5015   20.6971  -75.0545 H         1 UNK         0.0793 
    116 H116      -76.0234   20.9704  -74.2260 H         1 UNK         0.0793 
    117 H117      -77.2968   22.5501  -77.3768 H         1 UNK         0.3047 
    118 H118      -79.4213   23.5369  -77.0722 H         1 UNK         0.0822 
    119 H119      -79.2821   21.1163  -77.6952 H         1 UNK         0.0807 
    120 H120      -80.9556   21.5947  -77.4856 H         1 UNK         0.0807 
    121 H121      -80.1382   20.6674  -76.2280 H         1 UNK         0.0807 
    122 H122      -81.2184   22.5081  -75.0290 H         1 UNK         0.2946 
    123 H123      -82.7199   24.1027  -74.2067 H         1 UNK         0.1144 
    124 H124      -82.2424   24.2229  -71.7738 H         1 UNK         0.0793 
    125 H125      -80.5842   24.7278  -72.0900 H         1 UNK         0.0793 
    126 H126      -81.1131   23.1133  -72.5328 H         1 UNK         0.0793 
    127 H127      -81.8302   26.5908  -72.9830 H         1 UNK         0.2896 
@<TRIPOS>BOND
     1    1    2 1    
     2    1   67 1    
     3    1   68 1    
     4    1   69 1    
     5    2    3 2    
     6    2    4 am   BACKBONE|DICT|INTERRES
     7    4    5 1    
     8    4   70 1    
     9    5    6 1    
    10    5   65 1    
    11    5   71 1    
    12    6    7 1    
    13    6   72 1    
    14    6   73 1    
    15    7    8 1    
    16    8    9 1    
    17    8   74 1    
    18    8   75 1    
    19    9   10 ar   
    20    9   14 ar   
    21   10   11 ar   
    22   10   76 1    
    23   11   12 ar   
    24   11   48 1    
    25   12   13 ar   
    26   12   77 1    
    27   13   14 ar   
    28   13   15 1    
    29   14   78 1    
    30   15   16 1    
    31   15   79 1    
    32   15   80 1    
    33   16   17 1    
    34   17   18 1    
    35   17   81 1    
    36   17   82 1    
    37   18   19 1    
    38   18   22 1    
    39   18   83 1    
    40   19   20 am   BACKBONE|DICT|INTERRES
    41   19   21 2    
    42   20   84 1    
    43   20   85 1    
    44   22   23 am   BACKBONE|DICT|INTERRES
    45   22   86 1    
    46   23   24 2    
    47   23   25 1    
    48   25   26 1    
    49   25   27 1    
    50   25   87 1    
    51   26   88 1    
    52   26   89 1    
    53   26   90 1    
    54   27   28 am   BACKBONE|DICT|INTERRES
    55   27   91 1    
    56   28   29 2    
    57   28   30 1    
    58   30   31 1    
    59   30   32 1    
    60   30   92 1    
    61   31   93 1    
    62   31   94 1    
    63   31   95 1    
    64   32   33 am   BACKBONE|DICT|INTERRES
    65   32   96 1    
    66   33   34 2    
    67   33   35 1    
    68   35   36 1    
    69   35   37 1    
    70   35   97 1    
    71   36   98 1    
    72   36   99 1    
    73   36  100 1    
    74   37   38 am   BACKBONE|DICT|INTERRES
    75   37  101 1    
    76   38   39 2    
    77   38   40 1    
    78   40   41 1    
    79   40   42 1    
    80   40  102 1    
    81   41  103 1    
    82   41  104 1    
    83   41  105 1    
    84   42   43 am   BACKBONE|DICT|INTERRES
    85   42  106 1    
    86   43   44 2    
    87   43   45 1    
    88   45   46 1    
    89   45   49 1    
    90   45  107 1    
    91   46   47 1    
    92   46  108 1    
    93   46  109 1    
    94   47   48 1    
    95   48  110 1    
    96   48  111 1    
    97   49   50 am   BACKBONE|DICT|INTERRES
    98   49  112 1    
    99   50   51 2    
   100   50   52 1    
   101   52   53 1    
   102   52   54 1    
   103   52  113 1    
   104   53  114 1    
   105   53  115 1    
   106   53  116 1    
   107   54   55 am   BACKBONE|DICT|INTERRES
   108   54  117 1    
   109   55   56 2    
   110   55   57 1    
   111   57   58 1    
   112   57   59 1    
   113   57  118 1    
   114   58  119 1    
   115   58  120 1    
   116   58  121 1    
   117   59   60 am   BACKBONE|DICT|INTERRES
   118   59  122 1    
   119   60   61 2    
   120   60   62 1    
   121   62   63 1    
   122   62   64 1    
   123   62  123 1    
   124   63  124 1    
   125   63  125 1    
   126   63  126 1    
   127   64   65 am   BACKBONE|DICT|INTERRES
   128   64  127 1    
   129   65   66 2    
@<TRIPOS>SUBSTRUCTURE
     1 UNK         1 GROUP             0       ****    0 ROOT    
