@<TRIPOS>MOLECULE
3R135
127   129    1
SMALL
USER_CHARGES


@<TRIPOS>ATOM
      1 CA        -80.0083   29.8423  -77.1699 C.3       0 UNK        -0.1998 
      2 C         -79.8686   29.1137  -75.8419 C.2       0 UNK         0.4909 
      3 O         -78.7744   28.6654  -75.5051 O.2       0 UNK        -0.5240 
      4 N         -80.9649   28.9980  -75.0841 N.am      1 UNK        -0.4739 
      5 CA        -81.0210   28.2354  -73.8343 C.3       1 UNK         0.0864 
      6 C6        -82.0196   28.8449  -72.8188 C.3       11 UNK        -0.0881 
      7 S7        -81.5850   30.5568  -72.3489 S.3       11 UNK        -0.2682 
      8 C8        -80.7991   30.3335  -70.7198 C.3       11 UNK         0.0289 
      9 C9        -79.4097   29.7227  -70.8370 C.ar      11 UNK        -0.0687 
     10 C10       -79.2327   28.3441  -70.6897 C.ar      11 UNK        -0.0823 
     11 C11       -77.9648   27.7701  -70.8186 C.ar      11 UNK        -0.0830 
     12 C12       -76.8627   28.6005  -71.0545 C.ar      11 UNK        -0.1021 
     13 C13       -77.0218   29.9810  -71.2049 C.ar      11 UNK        -0.0753 
     14 C14       -78.3010   30.5361  -71.0948 C.ar      11 UNK        -0.0933 
     15 C15       -75.8229   30.8617  -71.5408 C.3       11 UNK         0.0166 
     16 S16       -74.4246   30.6074  -70.3993 S.3       11 UNK        -0.2615 
     17 C17       -73.1646   31.7239  -71.1120 C.3       11 UNK        -0.0865 
     18 CA        -71.9578   31.0531  -71.8387 C.3       10 UNK         0.0862 
     19 C         -71.1531   30.0257  -70.9817 C.2       10 UNK         0.5551 
     20 N         -70.5776   28.9808  -71.5646 N.am      10 UNK        -0.7319 
     21 O         -70.9954   30.2105  -69.7771 O.2       10 UNK        -0.5018 
     22 N         -72.2417   30.6818  -73.2378 N.am      10 UNK        -0.4509 
     23 C         -72.8929   29.6062  -73.7009 C.2       10 UNK         0.4899 
     24 O         -73.4026   28.7407  -72.9885 O.2       10 UNK        -0.4839 
     25 CA        -72.9966   29.4683  -75.2348 C.3       9 UNK         0.0222 
     26 CB        -72.1032   30.4443  -76.0366 C.3       9 UNK        -0.1966 
     27 N         -72.7782   28.0853  -75.6714 N.am      9 UNK        -0.4218 
     28 C         -71.6710   27.3468  -75.5068 C.2       9 UNK         0.5020 
     29 O         -70.6328   27.7755  -74.9984 O.2       9 UNK        -0.5274 
     30 CA        -71.7140   25.8748  -75.9610 C.3       8 UNK         0.0270 
     31 CB        -71.8989   24.9460  -74.7492 C.3       8 UNK        -0.1976 
     32 N         -72.7335   25.5588  -76.9694 N.am      8 UNK        -0.4313 
     33 C         -72.6591   25.9079  -78.2626 C.2       8 UNK         0.5041 
     34 O         -71.7702   26.6231  -78.7262 O.2       8 UNK        -0.5577 
     35 CA        -73.7368   25.3470  -79.2063 C.3       7 UNK         0.0284 
     36 CB        -73.4846   23.8577  -79.4967 C.3       7 UNK        -0.1958 
     37 N         -75.0767   25.5143  -78.6451 N.am      7 UNK        -0.4454 
     38 C         -75.9204   26.5071  -78.9634 C.2       7 UNK         0.5089 
     39 O         -75.7099   27.3248  -79.8601 O.2       7 UNK        -0.5125 
     40 CA        -77.2120   26.6340  -78.1276 C.3       6 UNK         0.0408 
     41 CB        -78.4020   25.9933  -78.8574 C.3       6 UNK        -0.1791 
     42 N         -77.1069   26.0619  -76.7827 N.am      6 UNK        -0.4762 
     43 C         -76.2282   26.4569  -75.8517 C.2       6 UNK         0.5007 
     44 O         -75.4398   27.3844  -76.0186 O.2       6 UNK        -0.5032 
     45 CA        -76.1366   25.6280  -74.5580 C.3       5 UNK         0.0783 
     46 C46       -76.9955   26.2428  -73.4355 C.3       11 UNK        -0.0857 
     47 S47       -76.5703   25.5170  -71.8154 S.3       11 UNK        -0.2512 
     48 C48       -77.8135   26.2548  -70.6973 C.3       11 UNK         0.0225 
     49 N         -76.4383   24.2092  -74.7726 N.am      5 UNK        -0.4615 
     50 C         -75.7234   23.3733  -75.5354 C.2       4 UNK         0.5053 
     51 O         -74.7220   23.7138  -76.1661 O.2       4 UNK        -0.5105 
     52 CA        -76.2359   21.9278  -75.6326 C.3       4 UNK         0.0263 
     53 CB        -75.8028   21.1174  -74.4006 C.3       4 UNK        -0.1981 
     54 N         -77.6942   21.8750  -75.7732 N.am      4 UNK        -0.4224 
     55 C         -78.3479   22.1900  -76.9009 C.2       3 UNK         0.4895 
     56 O         -77.7879   22.4594  -77.9636 O.2       3 UNK        -0.5091 
     57 CA        -79.8863   22.2409  -76.8282 C.3       3 UNK         0.0250 
     58 CB        -80.4845   20.8493  -77.0906 C.3       3 UNK        -0.1996 
     59 N         -80.4206   22.7760  -75.5674 N.am      3 UNK        -0.4254 
     60 C         -80.1581   23.9995  -75.0861 C.2       2 UNK         0.5004 
     61 O         -79.3802   24.7855  -75.6280 O.2       2 UNK        -0.5226 
     62 CA        -80.8356   24.3841  -73.7558 C.3       2 UNK         0.0269 
     63 CB        -80.1935   23.6180  -72.5860 C.3       2 UNK        -0.1926 
     64 N         -80.7369   25.8228  -73.4818 N.am      2 UNK        -0.4687 
     65 C         -81.3886   26.7751  -74.1620 C.2       1 UNK         0.5165 
     66 O         -82.2638   26.5386  -74.9999 O.2       1 UNK        -0.5079 
     67 H67       -79.3343   30.6979  -77.2003 H         1 UNK         0.0900 
     68 H68       -81.0237   30.2033  -77.3324 H         1 UNK         0.0900 
     69 H69       -79.7490   29.1743  -77.9909 H         1 UNK         0.0900 
     70 H70       -81.8476   29.3594  -75.4155 H         1 UNK         0.2959 
     71 H71       -80.0300   28.2427  -73.3756 H         1 UNK         0.1079 
     72 H72       -83.0276   28.8584  -73.2381 H         1 UNK         0.0837 
     73 H73       -82.0806   28.2305  -71.9189 H         1 UNK         0.0837 
     74 H74       -80.7272   31.3065  -70.2315 H         1 UNK         0.0685 
     75 H75       -81.4391   29.7231  -70.0808 H         1 UNK         0.0685 
     76 H76       -80.0892   27.7160  -70.4865 H         1 UNK         0.1434 
     77 H77       -75.8743   28.1716  -71.1520 H         1 UNK         0.1329 
     78 H78       -78.4397   31.6012  -71.2216 H         1 UNK         0.1335 
     79 H79       -75.5031   30.6405  -72.5595 H         1 UNK         0.0680 
     80 H80       -76.1037   31.9159  -71.5218 H         1 UNK         0.0680 
     81 H81       -72.7846   32.3290  -70.2870 H         1 UNK         0.1032 
     82 H82       -73.6463   32.4380  -71.7812 H         1 UNK         0.1032 
     83 H83       -71.2326   31.8583  -71.9633 H         1 UNK         0.0461 
     84 H84       -70.0428   28.3354  -71.0058 H         1 UNK         0.3453 
     85 H85       -70.7041   28.8128  -72.5517 H         1 UNK         0.3453 
     86 H86       -71.8428   31.3042  -73.9254 H         1 UNK         0.2984 
     87 H87       -74.0334   29.6987  -75.4835 H         1 UNK         0.0554 
     88 H88       -72.2096   30.2765  -77.1085 H         1 UNK         0.0847 
     89 H89       -71.0462   30.3313  -75.7922 H         1 UNK         0.0847 
     90 H90       -72.3815   31.4828  -75.8536 H         1 UNK         0.0847 
     91 H91       -73.6182   27.6269  -76.0183 H         1 UNK         0.3141 
     92 H92       -70.7393   25.6529  -76.4009 H         1 UNK         0.0743 
     93 H93       -71.1093   25.1037  -74.0132 H         1 UNK         0.0784 
     94 H94       -72.8491   25.1206  -74.2458 H         1 UNK         0.0784 
     95 H95       -71.8627   23.8966  -75.0424 H         1 UNK         0.0784 
     96 H96       -73.4780   24.9275  -76.6772 H         1 UNK         0.3213 
     97 H97       -73.6597   25.8853  -80.1537 H         1 UNK         0.0855 
     98 H98       -72.4911   23.7067  -79.9209 H         1 UNK         0.0814 
     99 H99       -74.2059   23.4689  -80.2156 H         1 UNK         0.0814 
    100 H100      -73.5506   23.2467  -78.5957 H         1 UNK         0.0814 
    101 H101      -75.3299   24.8993  -77.8813 H         1 UNK         0.3105 
    102 H102      -77.4198   27.6993  -78.0089 H         1 UNK         0.0547 
    103 H103      -78.5432   26.4408  -79.8420 H         1 UNK         0.0837 
    104 H104      -78.2553   24.9228  -79.0029 H         1 UNK         0.0837 
    105 H105      -79.3292   26.1321  -78.3007 H         1 UNK         0.0837 
    106 H106      -77.7961   25.3610  -76.5196 H         1 UNK         0.3020 
    107 H107      -75.0937   25.6900  -74.2423 H         1 UNK         0.1245 
    108 H108      -78.0558   26.1055  -73.6394 H         1 UNK         0.0781 
    109 H109      -76.8301   27.3203  -73.3902 H         1 UNK         0.0781 
    110 H110      -77.5396   26.0151  -69.6692 H         1 UNK         0.0836 
    111 H111      -78.7692   25.7625  -70.8799 H         1 UNK         0.0836 
    112 H112      -77.2682   23.8622  -74.3187 H         1 UNK         0.3022 
    113 H113      -75.7825   21.4721  -76.5158 H         1 UNK         0.0747 
    114 H114      -76.1023   20.0729  -74.4886 H         1 UNK         0.0793 
    115 H115      -74.7178   21.1332  -74.2872 H         1 UNK         0.0793 
    116 H116      -76.2320   21.5137  -73.4793 H         1 UNK         0.0793 
    117 H117      -78.2329   21.6432  -74.9517 H         1 UNK         0.3047 
    118 H118      -80.2198   22.9082  -77.6261 H         1 UNK         0.0822 
    119 H119      -81.5718   20.8905  -77.1594 H         1 UNK         0.0807 
    120 H120      -80.2234   20.1407  -76.3036 H         1 UNK         0.0807 
    121 H121      -80.1188   20.4387  -78.0330 H         1 UNK         0.0807 
    122 H122      -81.0587   22.1793  -75.0602 H         1 UNK         0.2946 
    123 H123      -81.8931   24.1178  -73.8221 H         1 UNK         0.1144 
    124 H124      -80.6545   23.8864  -71.6352 H         1 UNK         0.0793 
    125 H125      -79.1242   23.8168  -72.5082 H         1 UNK         0.0793 
    126 H126      -80.3149   22.5405  -72.7038 H         1 UNK         0.0793 
    127 H127      -80.0286   26.1012  -72.8212 H         1 UNK         0.2896 
@<TRIPOS>BOND
     1    1    2 1    
     2    1   67 1    
     3    1   68 1    
     4    1   69 1    
     5    2    3 2    
     6    2    4 am   BACKBONE|DICT|INTERRES
     7    4    5 1    
     8    4   70 1    
     9    5    6 1    
    10    5   65 1    
    11    5   71 1    
    12    6    7 1    
    13    6   72 1    
    14    6   73 1    
    15    7    8 1    
    16    8    9 1    
    17    8   74 1    
    18    8   75 1    
    19    9   10 ar   
    20    9   14 ar   
    21   10   11 ar   
    22   10   76 1    
    23   11   12 ar   
    24   11   48 1    
    25   12   13 ar   
    26   12   77 1    
    27   13   14 ar   
    28   13   15 1    
    29   14   78 1    
    30   15   16 1    
    31   15   79 1    
    32   15   80 1    
    33   16   17 1    
    34   17   18 1    
    35   17   81 1    
    36   17   82 1    
    37   18   19 1    
    38   18   22 1    
    39   18   83 1    
    40   19   20 am   BACKBONE|DICT|INTERRES
    41   19   21 2    
    42   20   84 1    
    43   20   85 1    
    44   22   23 am   BACKBONE|DICT|INTERRES
    45   22   86 1    
    46   23   24 2    
    47   23   25 1    
    48   25   26 1    
    49   25   27 1    
    50   25   87 1    
    51   26   88 1    
    52   26   89 1    
    53   26   90 1    
    54   27   28 am   BACKBONE|DICT|INTERRES
    55   27   91 1    
    56   28   29 2    
    57   28   30 1    
    58   30   31 1    
    59   30   32 1    
    60   30   92 1    
    61   31   93 1    
    62   31   94 1    
    63   31   95 1    
    64   32   33 am   BACKBONE|DICT|INTERRES
    65   32   96 1    
    66   33   34 2    
    67   33   35 1    
    68   35   36 1    
    69   35   37 1    
    70   35   97 1    
    71   36   98 1    
    72   36   99 1    
    73   36  100 1    
    74   37   38 am   BACKBONE|DICT|INTERRES
    75   37  101 1    
    76   38   39 2    
    77   38   40 1    
    78   40   41 1    
    79   40   42 1    
    80   40  102 1    
    81   41  103 1    
    82   41  104 1    
    83   41  105 1    
    84   42   43 am   BACKBONE|DICT|INTERRES
    85   42  106 1    
    86   43   44 2    
    87   43   45 1    
    88   45   46 1    
    89   45   49 1    
    90   45  107 1    
    91   46   47 1    
    92   46  108 1    
    93   46  109 1    
    94   47   48 1    
    95   48  110 1    
    96   48  111 1    
    97   49   50 am   BACKBONE|DICT|INTERRES
    98   49  112 1    
    99   50   51 2    
   100   50   52 1    
   101   52   53 1    
   102   52   54 1    
   103   52  113 1    
   104   53  114 1    
   105   53  115 1    
   106   53  116 1    
   107   54   55 am   BACKBONE|DICT|INTERRES
   108   54  117 1    
   109   55   56 2    
   110   55   57 1    
   111   57   58 1    
   112   57   59 1    
   113   57  118 1    
   114   58  119 1    
   115   58  120 1    
   116   58  121 1    
   117   59   60 am   BACKBONE|DICT|INTERRES
   118   59  122 1    
   119   60   61 2    
   120   60   62 1    
   121   62   63 1    
   122   62   64 1    
   123   62  123 1    
   124   63  124 1    
   125   63  125 1    
   126   63  126 1    
   127   64   65 am   BACKBONE|DICT|INTERRES
   128   64  127 1    
   129   65   66 2    
@<TRIPOS>SUBSTRUCTURE
     1 UNK         1 GROUP             0       ****    0 ROOT    
