@<TRIPOS>MOLECULE
3R135
127   129    1
SMALL
USER_CHARGES


@<TRIPOS>ATOM
      1 CA        -84.3265   25.2221  -73.1986 C.3       0 UNK        -0.1998 
      2 C         -83.5033   26.3544  -73.7937 C.2       0 UNK         0.4909 
      3 O         -83.3685   26.4372  -75.0155 O.2       0 UNK        -0.5240 
      4 N         -82.9596   27.2321  -72.9400 N.am      1 UNK        -0.4739 
      5 CA        -82.0719   28.3346  -73.3237 C.3       1 UNK         0.0864 
      6 C6        -81.9457   29.4137  -72.2101 C.3       11 UNK        -0.0881 
      7 S7        -81.6460   28.9166  -70.4658 S.3       11 UNK        -0.2682 
      8 C8        -80.5971   27.4162  -70.4686 C.3       11 UNK         0.0289 
      9 C9        -79.1031   27.6124  -70.7464 C.ar      11 UNK        -0.0687 
     10 C10       -78.2502   26.5296  -70.5090 C.ar      11 UNK        -0.0823 
     11 C11       -76.8827   26.6157  -70.7818 C.ar      11 UNK        -0.0830 
     12 C12       -76.3631   27.7979  -71.3143 C.ar      11 UNK        -0.1021 
     13 C13       -77.1947   28.8977  -71.5479 C.ar      11 UNK        -0.0753 
     14 C14       -78.5585   28.8021  -71.2506 C.ar      11 UNK        -0.0933 
     15 C15       -76.6407   30.1661  -72.1847 C.3       11 UNK         0.0166 
     16 S16       -75.1703   30.8130  -71.3270 S.3       11 UNK        -0.2615 
     17 C17       -74.6540   32.1273  -72.4899 C.3       11 UNK        -0.0865 
     18 CA        -73.4874   31.7219  -73.4327 C.3       10 UNK         0.0862 
     19 C         -72.1236   31.6205  -72.6854 C.2       10 UNK         0.5551 
     20 N         -71.4368   30.4838  -72.6871 N.am      10 UNK        -0.7319 
     21 O         -71.6718   32.6046  -72.1048 O.2       10 UNK        -0.5018 
     22 N         -73.8346   30.5475  -74.2467 N.am      10 UNK        -0.4509 
     23 C         -73.3139   30.2597  -75.4437 C.2       10 UNK         0.4899 
     24 O         -72.5321   30.9888  -76.0570 O.2       10 UNK        -0.4839 
     25 CA        -73.7323   28.9108  -76.0533 C.3       9 UNK         0.0222 
     26 CB        -74.3624   29.1037  -77.4430 C.3       9 UNK        -0.1966 
     27 N         -72.6053   27.9822  -76.1599 N.am      9 UNK        -0.4218 
     28 C         -71.8445   27.5542  -75.1412 C.2       9 UNK         0.5020 
     29 O         -71.9969   27.9140  -73.9713 O.2       9 UNK        -0.5274 
     30 CA        -70.7554   26.5299  -75.4962 C.3       8 UNK         0.0270 
     31 CB        -70.0843   25.9030  -74.2580 C.3       8 UNK        -0.1976 
     32 N         -71.3301   25.4772  -76.3328 N.am      8 UNK        -0.4313 
     33 C         -70.6982   24.8457  -77.3304 C.2       8 UNK         0.5041 
     34 O         -69.5321   25.0804  -77.6517 O.2       8 UNK        -0.5577 
     35 CA        -71.4775   23.7646  -78.1081 C.3       7 UNK         0.0284 
     36 CB        -71.0471   22.3618  -77.6485 C.3       7 UNK        -0.1958 
     37 N         -72.9350   23.8750  -77.9972 N.am      7 UNK        -0.4454 
     38 C         -73.6724   24.8702  -78.5076 C.2       7 UNK         0.5089 
     39 O         -73.2073   25.7863  -79.1864 O.2       7 UNK        -0.5125 
     40 CA        -75.1791   24.8656  -78.1827 C.3       6 UNK         0.0408 
     41 CB        -75.9628   24.1955  -79.3219 C.3       6 UNK        -0.1791 
     42 N         -75.5713   24.2569  -76.9013 N.am      6 UNK        -0.4762 
     43 C         -75.0602   24.5428  -75.6913 C.2       6 UNK         0.5007 
     44 O         -74.0467   25.2210  -75.5295 O.2       6 UNK        -0.5032 
     45 CA        -75.8088   23.9960  -74.4603 C.3       5 UNK         0.0783 
     46 C46       -75.4289   24.7668  -73.1672 C.3       11 UNK        -0.0857 
     47 S47       -76.1994   24.0702  -71.6692 S.3       11 UNK        -0.2512 
     48 C48       -75.9690   25.4341  -70.4865 C.3       11 UNK         0.0225 
     49 N         -77.2492   24.0388  -74.7194 N.am      5 UNK        -0.4615 
     50 C         -78.0965   23.0104  -74.5905 C.2       4 UNK         0.5053 
     51 O         -77.7480   21.8716  -74.2780 O.2       4 UNK        -0.5105 
     52 CA        -79.5886   23.2874  -74.8535 C.3       4 UNK         0.0263 
     53 CB        -80.3479   23.4156  -73.5226 C.3       4 UNK        -0.1981 
     54 N         -79.8145   24.4903  -75.6601 N.am      4 UNK        -0.4224 
     55 C         -79.5591   24.5687  -76.9760 C.2       3 UNK         0.4895 
     56 O         -79.1799   23.6105  -77.6496 O.2       3 UNK        -0.5091 
     57 CA        -79.7206   25.9387  -77.6631 C.3       3 UNK         0.0250 
     58 CB        -81.0749   26.0184  -78.3854 C.3       3 UNK        -0.1996 
     59 N         -79.5945   27.0807  -76.7549 N.am      3 UNK        -0.4254 
     60 C         -78.4956   27.3957  -76.0544 C.2       2 UNK         0.5004 
     61 O         -77.4305   26.7890  -76.1428 O.2       2 UNK        -0.5226 
     62 CA        -78.6181   28.5422  -75.0373 C.3       2 UNK         0.0269 
     63 CB        -78.0738   29.8512  -75.6299 C.3       2 UNK        -0.1926 
     64 N         -79.9772   28.7672  -74.5269 N.am      2 UNK        -0.4687 
     65 C         -80.7076   27.8557  -73.8663 C.2       1 UNK         0.5165 
     66 O         -80.3385   26.6917  -73.6955 O.2       1 UNK        -0.5079 
     67 H67       -83.9264   24.2601  -73.5179 H         1 UNK         0.0900 
     68 H68       -84.3237   25.2451  -72.1090 H         1 UNK         0.0900 
     69 H69       -85.3597   25.2911  -73.5380 H         1 UNK         0.0900 
     70 H70       -83.0980   27.1162  -71.9465 H         1 UNK         0.2959 
     71 H71       -82.5536   28.8240  -74.1738 H         1 UNK         0.1079 
     72 H72       -81.2026   30.1653  -72.4805 H         1 UNK         0.0837 
     73 H73       -82.8840   29.9705  -72.1892 H         1 UNK         0.0837 
     74 H74       -80.6920   26.9749  -69.4754 H         1 UNK         0.0685 
     75 H75       -81.0005   26.6719  -71.1531 H         1 UNK         0.0685 
     76 H76       -78.6537   25.6055  -70.1175 H         1 UNK         0.1434 
     77 H77       -75.3089   27.8643  -71.5468 H         1 UNK         0.1329 
     78 H78       -79.1931   29.6525  -71.4452 H         1 UNK         0.1335 
     79 H79       -77.4004   30.9490  -72.2133 H         1 UNK         0.0680 
     80 H80       -76.3841   29.9437  -73.2197 H         1 UNK         0.0680 
     81 H81       -75.5127   32.4366  -73.0878 H         1 UNK         0.1032 
     82 H82       -74.3833   33.0111  -71.9088 H         1 UNK         0.1032 
     83 H83       -73.3589   32.5560  -74.1255 H         1 UNK         0.0461 
     84 H84       -70.5558   30.4433  -72.2011 H         1 UNK         0.3453 
     85 H85       -71.7881   29.6554  -73.1590 H         1 UNK         0.3453 
     86 H86       -74.4040   29.8551  -73.7842 H         1 UNK         0.2984 
     87 H87       -74.4804   28.4448  -75.4077 H         1 UNK         0.0554 
     88 H88       -75.1730   29.8321  -77.4116 H         1 UNK         0.0847 
     89 H89       -74.7812   28.1712  -77.8204 H         1 UNK         0.0847 
     90 H90       -73.6340   29.4640  -78.1705 H         1 UNK         0.0847 
     91 H91       -72.4016   27.6279  -77.0835 H         1 UNK         0.3141 
     92 H92       -69.9959   27.0744  -76.0612 H         1 UNK         0.0743 
     93 H93       -69.6289   26.6688  -73.6288 H         1 UNK         0.0784 
     94 H94       -70.8050   25.3598  -73.6455 H         1 UNK         0.0784 
     95 H95       -69.2947   25.2080  -74.5437 H         1 UNK         0.0784 
     96 H96       -72.3076   25.2574  -76.1377 H         1 UNK         0.3213 
     97 H97       -71.2143   23.8746  -79.1624 H         1 UNK         0.0855 
     98 H98       -71.2980   22.1852  -76.6017 H         1 UNK         0.0814 
     99 H99       -69.9686   22.2316  -77.7505 H         1 UNK         0.0814 
    100 H100      -71.5223   21.5835  -78.2458 H         1 UNK         0.0814 
    101 H101      -73.4078   23.1750  -77.4441 H         1 UNK         0.3105 
    102 H102      -75.4931   25.9094  -78.1333 H         1 UNK         0.0547 
    103 H103      -77.0374   24.3222  -79.1943 H         1 UNK         0.0837 
    104 H104      -75.7029   24.6323  -80.2873 H         1 UNK         0.0837 
    105 H105      -75.7544   23.1266  -79.3807 H         1 UNK         0.0837 
    106 H106      -76.4078   23.6902  -76.9238 H         1 UNK         0.3020 
    107 H107      -75.4770   22.9616  -74.3474 H         1 UNK         0.1245 
    108 H108      -75.7146   25.8155  -73.2646 H         1 UNK         0.0781 
    109 H109      -74.3485   24.7553  -73.0096 H         1 UNK         0.0781 
    110 H110      -74.9216   25.7405  -70.4862 H         1 UNK         0.0836 
    111 H111      -76.1766   25.0652  -69.4811 H         1 UNK         0.0836 
    112 H112      -77.6017   24.9354  -75.0349 H         1 UNK         0.3022 
    113 H113      -79.9947   22.4306  -75.3955 H         1 UNK         0.0747 
    114 H114      -81.4042   23.6300  -73.6841 H         1 UNK         0.0793 
    115 H115      -80.2867   22.4895  -72.9497 H         1 UNK         0.0793 
    116 H116      -79.9350   24.2089  -72.8978 H         1 UNK         0.0793 
    117 H117      -80.1015   25.3239  -75.1543 H         1 UNK         0.3047 
    118 H118      -78.9263   26.0218  -78.4080 H         1 UNK         0.0822 
    119 H119      -81.1914   25.1932  -79.0896 H         1 UNK         0.0807 
    120 H120      -81.1684   26.9432  -78.9549 H         1 UNK         0.0807 
    121 H121      -81.9089   25.9685  -77.6835 H         1 UNK         0.0807 
    122 H122      -80.4270   27.6301  -76.5993 H         1 UNK         0.2946 
    123 H123      -77.9965   28.2599  -74.1856 H         1 UNK         0.1144 
    124 H124      -78.1054   30.6642  -74.9047 H         1 UNK         0.0793 
    125 H125      -78.6404   30.1631  -76.5082 H         1 UNK         0.0793 
    126 H126      -77.0344   29.7334  -75.9360 H         1 UNK         0.0793 
    127 H127      -80.3516   29.6972  -74.6512 H         1 UNK         0.2896 
@<TRIPOS>BOND
     1    1    2 1    
     2    1   67 1    
     3    1   68 1    
     4    1   69 1    
     5    2    3 2    
     6    2    4 am   BACKBONE|DICT|INTERRES
     7    4    5 1    
     8    4   70 1    
     9    5    6 1    
    10    5   65 1    
    11    5   71 1    
    12    6    7 1    
    13    6   72 1    
    14    6   73 1    
    15    7    8 1    
    16    8    9 1    
    17    8   74 1    
    18    8   75 1    
    19    9   10 ar   
    20    9   14 ar   
    21   10   11 ar   
    22   10   76 1    
    23   11   12 ar   
    24   11   48 1    
    25   12   13 ar   
    26   12   77 1    
    27   13   14 ar   
    28   13   15 1    
    29   14   78 1    
    30   15   16 1    
    31   15   79 1    
    32   15   80 1    
    33   16   17 1    
    34   17   18 1    
    35   17   81 1    
    36   17   82 1    
    37   18   19 1    
    38   18   22 1    
    39   18   83 1    
    40   19   20 am   BACKBONE|DICT|INTERRES
    41   19   21 2    
    42   20   84 1    
    43   20   85 1    
    44   22   23 am   BACKBONE|DICT|INTERRES
    45   22   86 1    
    46   23   24 2    
    47   23   25 1    
    48   25   26 1    
    49   25   27 1    
    50   25   87 1    
    51   26   88 1    
    52   26   89 1    
    53   26   90 1    
    54   27   28 am   BACKBONE|DICT|INTERRES
    55   27   91 1    
    56   28   29 2    
    57   28   30 1    
    58   30   31 1    
    59   30   32 1    
    60   30   92 1    
    61   31   93 1    
    62   31   94 1    
    63   31   95 1    
    64   32   33 am   BACKBONE|DICT|INTERRES
    65   32   96 1    
    66   33   34 2    
    67   33   35 1    
    68   35   36 1    
    69   35   37 1    
    70   35   97 1    
    71   36   98 1    
    72   36   99 1    
    73   36  100 1    
    74   37   38 am   BACKBONE|DICT|INTERRES
    75   37  101 1    
    76   38   39 2    
    77   38   40 1    
    78   40   41 1    
    79   40   42 1    
    80   40  102 1    
    81   41  103 1    
    82   41  104 1    
    83   41  105 1    
    84   42   43 am   BACKBONE|DICT|INTERRES
    85   42  106 1    
    86   43   44 2    
    87   43   45 1    
    88   45   46 1    
    89   45   49 1    
    90   45  107 1    
    91   46   47 1    
    92   46  108 1    
    93   46  109 1    
    94   47   48 1    
    95   48  110 1    
    96   48  111 1    
    97   49   50 am   BACKBONE|DICT|INTERRES
    98   49  112 1    
    99   50   51 2    
   100   50   52 1    
   101   52   53 1    
   102   52   54 1    
   103   52  113 1    
   104   53  114 1    
   105   53  115 1    
   106   53  116 1    
   107   54   55 am   BACKBONE|DICT|INTERRES
   108   54  117 1    
   109   55   56 2    
   110   55   57 1    
   111   57   58 1    
   112   57   59 1    
   113   57  118 1    
   114   58  119 1    
   115   58  120 1    
   116   58  121 1    
   117   59   60 am   BACKBONE|DICT|INTERRES
   118   59  122 1    
   119   60   61 2    
   120   60   62 1    
   121   62   63 1    
   122   62   64 1    
   123   62  123 1    
   124   63  124 1    
   125   63  125 1    
   126   63  126 1    
   127   64   65 am   BACKBONE|DICT|INTERRES
   128   64  127 1    
   129   65   66 2    
@<TRIPOS>SUBSTRUCTURE
     1 UNK         1 GROUP             0       ****    0 ROOT    
