@<TRIPOS>MOLECULE
3R135
127   129    1
SMALL
USER_CHARGES


@<TRIPOS>ATOM
      1 CA        -85.2384   26.8550  -71.9139 C.3       0 UNK        -0.1998 
      2 C         -85.0125   27.4606  -73.2909 C.2       0 UNK         0.4909 
      3 O         -85.9550   27.5694  -74.0756 O.2       0 UNK        -0.5240 
      4 N         -83.7678   27.8527  -73.5924 N.am      1 UNK        -0.4739 
      5 CA        -83.3604   28.4407  -74.8765 C.3       1 UNK         0.0864 
      6 C6        -82.0489   29.2542  -74.7320 C.3       11 UNK        -0.0881 
      7 S7        -80.6032   28.2627  -74.2041 S.3       11 UNK        -0.2682 
      8 C8        -79.9986   29.2228  -72.7838 C.3       11 UNK         0.0289 
      9 C9        -78.5624   28.8491  -72.4542 C.ar      11 UNK        -0.0687 
     10 C10       -78.2856   27.7827  -71.5942 C.ar      11 UNK        -0.0823 
     11 C11       -76.9631   27.4334  -71.3021 C.ar      11 UNK        -0.0830 
     12 C12       -75.9156   28.1590  -71.8752 C.ar      11 UNK        -0.1021 
     13 C13       -76.1806   29.2283  -72.7353 C.ar      11 UNK        -0.0753 
     14 C14       -77.5061   29.5699  -73.0185 C.ar      11 UNK        -0.0933 
     15 C15       -75.0416   29.9887  -73.3969 C.3       11 UNK         0.0166 
     16 S16       -74.2515   31.1705  -72.2609 S.3       11 UNK        -0.2615 
     17 C17       -72.7876   30.2287  -71.7055 C.3       11 UNK        -0.0865 
     18 CA        -71.5224   30.5805  -72.5301 C.3       10 UNK         0.0862 
     19 C         -70.2636   29.9050  -71.9293 C.2       10 UNK         0.5551 
     20 N         -69.4218   30.6587  -71.2360 N.am      10 UNK        -0.7319 
     21 O         -70.0715   28.6968  -72.0491 O.2       10 UNK        -0.5018 
     22 N         -71.6862   30.2060  -73.9393 N.am      10 UNK        -0.4509 
     23 C         -71.0613   30.7853  -74.9696 C.2       10 UNK         0.4899 
     24 O         -70.2996   31.7477  -74.8595 O.2       10 UNK        -0.4839 
     25 CA        -71.3597   30.1809  -76.3564 C.3       9 UNK         0.0222 
     26 CB        -70.4305   30.7166  -77.4668 C.3       9 UNK        -0.1966 
     27 N         -71.3746   28.7123  -76.3411 N.am      9 UNK        -0.4218 
     28 C         -70.3551   27.8937  -76.0256 C.2       9 UNK         0.5020 
     29 O         -69.2223   28.2846  -75.7414 O.2       9 UNK        -0.5274 
     30 CA        -70.6344   26.3783  -76.0102 C.3       8 UNK         0.0270 
     31 CB        -70.5963   25.8385  -74.5700 C.3       8 UNK        -0.1976 
     32 N         -71.9144   26.0212  -76.6280 N.am      8 UNK        -0.4313 
     33 C         -72.1222   25.9538  -77.9518 C.2       8 UNK         0.5041 
     34 O         -71.2338   26.1247  -78.7874 O.2       8 UNK        -0.5577 
     35 CA        -73.5546   25.6649  -78.4389 C.3       7 UNK         0.0284 
     36 CB        -73.6714   24.2162  -78.9395 C.3       7 UNK        -0.1958 
     37 N         -74.5855   25.9144  -77.4268 N.am      7 UNK        -0.4454 
     38 C         -74.9358   27.1299  -76.9779 C.2       7 UNK         0.5089 
     39 O         -74.4124   28.1758  -77.3630 O.2       7 UNK        -0.5125 
     40 CA        -76.0010   27.1837  -75.8680 C.3       6 UNK         0.0408 
     41 CB        -77.4062   27.3165  -76.4704 C.3       6 UNK        -0.1791 
     42 N         -75.9485   26.0275  -74.9669 N.am      6 UNK        -0.4762 
     43 C         -74.8936   25.7325  -74.1884 C.2       6 UNK         0.5007 
     44 O         -73.8987   26.4547  -74.1110 O.2       6 UNK        -0.5032 
     45 CA        -74.8873   24.3873  -73.4299 C.3       5 UNK         0.0783 
     46 C46       -74.9793   24.5637  -71.8905 C.3       11 UNK        -0.0857 
     47 S47       -76.6810   24.6817  -71.2313 S.3       11 UNK        -0.2512 
     48 C48       -76.6717   26.2776  -70.3594 C.3       11 UNK         0.0225 
     49 N         -75.8549   23.4111  -73.9404 N.am      5 UNK        -0.4615 
     50 C         -75.8344   22.8541  -75.1576 C.2       4 UNK         0.5053 
     51 O         -74.9570   23.0742  -75.9918 O.2       4 UNK        -0.5105 
     52 CA        -77.0152   21.9362  -75.5215 C.3       4 UNK         0.0263 
     53 CB        -76.6666   20.4705  -75.2183 C.3       4 UNK        -0.1981 
     54 N         -78.2731   22.2889  -74.8488 N.am      4 UNK        -0.4224 
     55 C         -78.9218   23.4512  -75.0077 C.2       3 UNK         0.4895 
     56 O         -78.5077   24.3752  -75.7101 O.2       3 UNK        -0.5091 
     57 CA        -80.2176   23.6313  -74.2042 C.3       3 UNK         0.0250 
     58 CB        -79.9264   24.3222  -72.8630 C.3       3 UNK        -0.1996 
     59 N         -81.1830   24.4405  -74.9449 N.am      3 UNK        -0.4254 
     60 C         -81.9717   23.9827  -75.9278 C.2       2 UNK         0.5004 
     61 O         -81.9736   22.8095  -76.3050 O.2       2 UNK        -0.5226 
     62 CA        -82.9412   24.9920  -76.5712 C.3       2 UNK         0.0269 
     63 CB        -84.2835   24.3498  -76.9711 C.3       2 UNK        -0.1926 
     64 N         -83.1905   26.1166  -75.6677 N.am      2 UNK        -0.4687 
     65 C         -83.2551   27.4057  -76.0211 C.2       1 UNK         0.5165 
     66 O         -83.2092   27.7955  -77.1891 O.2       1 UNK        -0.5079 
     67 H67       -84.3196   26.8172  -71.3289 H         1 UNK         0.0900 
     68 H68       -85.6221   25.8396  -72.0089 H         1 UNK         0.0900 
     69 H69       -85.9685   27.4448  -71.3604 H         1 UNK         0.0900 
     70 H70       -83.0287   27.7462  -72.9116 H         1 UNK         0.2959 
     71 H71       -84.1423   29.1407  -75.1804 H         1 UNK         0.1079 
     72 H72       -82.2123   30.0672  -74.0230 H         1 UNK         0.0837 
     73 H73       -81.7990   29.7430  -75.6758 H         1 UNK         0.0837 
     74 H74       -80.6463   29.0494  -71.9231 H         1 UNK         0.0685 
     75 H75       -80.0572   30.2892  -73.0079 H         1 UNK         0.0685 
     76 H76       -79.0996   27.2188  -71.1596 H         1 UNK         0.1434 
     77 H77       -74.8935   27.8812  -71.6630 H         1 UNK         0.1329 
     78 H78       -77.7180   30.3894  -73.6916 H         1 UNK         0.1335 
     79 H79       -74.3091   29.2811  -73.7858 H         1 UNK         0.0680 
     80 H80       -75.4103   30.5401  -74.2633 H         1 UNK         0.0680 
     81 H81       -72.6288   30.4689  -70.6523 H         1 UNK         0.1032 
     82 H82       -72.9879   29.1570  -71.7395 H         1 UNK         0.1032 
     83 H83       -71.3877   31.6634  -72.4783 H         1 UNK         0.0461 
     84 H84       -69.5772   31.6491  -71.1275 H         1 UNK         0.3453 
     85 H85       -68.6067   30.2317  -70.8245 H         1 UNK         0.3453 
     86 H86       -72.2413   29.3829  -74.1157 H         1 UNK         0.2984 
     87 H87       -72.3764   30.4880  -76.6068 H         1 UNK         0.0554 
     88 H88       -70.6787   30.2827  -78.4354 H         1 UNK         0.0847 
     89 H89       -69.3821   30.4994  -77.2604 H         1 UNK         0.0847 
     90 H90       -70.5232   31.7990  -77.5644 H         1 UNK         0.0847 
     91 H91       -72.2633   28.2887  -76.5796 H         1 UNK         0.3141 
     92 H92       -69.8325   25.8935  -76.5714 H         1 UNK         0.0743 
     93 H93       -69.6085   25.9819  -74.1298 H         1 UNK         0.0784 
     94 H94       -71.3083   26.3524  -73.9239 H         1 UNK         0.0784 
     95 H95       -70.8144   24.7711  -74.5349 H         1 UNK         0.0784 
     96 H96       -72.6994   25.8916  -76.0024 H         1 UNK         0.3213 
     97 H97       -73.7485   26.3315  -79.2821 H         1 UNK         0.0855 
     98 H98       -73.4472   23.4969  -78.1512 H         1 UNK         0.0814 
     99 H99       -72.9721   24.0294  -79.7557 H         1 UNK         0.0814 
    100 H100      -74.6718   24.0026  -79.3160 H         1 UNK         0.0814 
    101 H101      -75.0257   25.0990  -77.0166 H         1 UNK         0.3105 
    102 H102      -75.8098   28.0760  -75.2742 H         1 UNK         0.0547 
    103 H103      -77.6482   26.4779  -77.1240 H         1 UNK         0.0837 
    104 H104      -78.1659   27.3639  -75.6907 H         1 UNK         0.0837 
    105 H105      -77.4916   28.2279  -77.0631 H         1 UNK         0.0837 
    106 H106      -76.7348   25.3879  -75.0022 H         1 UNK         0.3020 
    107 H107      -73.8992   23.9681  -73.6348 H         1 UNK         0.1245 
    108 H108      -74.3808   25.4126  -71.5549 H         1 UNK         0.0781 
    109 H109      -74.5248   23.6943  -71.4132 H         1 UNK         0.0781 
    110 H110      -75.7199   26.4223  -69.8460 H         1 UNK         0.0836 
    111 H111      -77.4310   26.2491  -69.5765 H         1 UNK         0.0836 
    112 H112      -76.6211   23.1948  -73.3194 H         1 UNK         0.3022 
    113 H113      -77.1790   22.0332  -76.5969 H         1 UNK         0.0747 
    114 H114      -77.4525   19.7961  -75.5591 H         1 UNK         0.0793 
    115 H115      -75.7472   20.1753  -75.7265 H         1 UNK         0.0793 
    116 H116      -76.5171   20.3023  -74.1509 H         1 UNK         0.0793 
    117 H117      -78.6729   21.5867  -74.2424 H         1 UNK         0.3047 
    118 H118      -80.6584   22.6517  -74.0060 H         1 UNK         0.0822 
    119 H119      -79.2936   23.6956  -72.2344 H         1 UNK         0.0807 
    120 H120      -80.8426   24.5131  -72.3040 H         1 UNK         0.0807 
    121 H121      -79.4129   25.2753  -73.0013 H         1 UNK         0.0807 
    122 H122      -81.1700   25.4336  -74.7614 H         1 UNK         0.2946 
    123 H123      -82.4446   25.3502  -77.4760 H         1 UNK         0.1144 
    124 H124      -84.1362   23.5395  -77.6863 H         1 UNK         0.0793 
    125 H125      -84.9451   25.0771  -77.4421 H         1 UNK         0.0793 
    126 H126      -84.8028   23.9350  -76.1065 H         1 UNK         0.0793 
    127 H127      -83.2631   25.8932  -74.6849 H         1 UNK         0.2896 
@<TRIPOS>BOND
     1    1    2 1    
     2    1   67 1    
     3    1   68 1    
     4    1   69 1    
     5    2    3 2    
     6    2    4 am   BACKBONE|DICT|INTERRES
     7    4    5 1    
     8    4   70 1    
     9    5    6 1    
    10    5   65 1    
    11    5   71 1    
    12    6    7 1    
    13    6   72 1    
    14    6   73 1    
    15    7    8 1    
    16    8    9 1    
    17    8   74 1    
    18    8   75 1    
    19    9   10 ar   
    20    9   14 ar   
    21   10   11 ar   
    22   10   76 1    
    23   11   12 ar   
    24   11   48 1    
    25   12   13 ar   
    26   12   77 1    
    27   13   14 ar   
    28   13   15 1    
    29   14   78 1    
    30   15   16 1    
    31   15   79 1    
    32   15   80 1    
    33   16   17 1    
    34   17   18 1    
    35   17   81 1    
    36   17   82 1    
    37   18   19 1    
    38   18   22 1    
    39   18   83 1    
    40   19   20 am   BACKBONE|DICT|INTERRES
    41   19   21 2    
    42   20   84 1    
    43   20   85 1    
    44   22   23 am   BACKBONE|DICT|INTERRES
    45   22   86 1    
    46   23   24 2    
    47   23   25 1    
    48   25   26 1    
    49   25   27 1    
    50   25   87 1    
    51   26   88 1    
    52   26   89 1    
    53   26   90 1    
    54   27   28 am   BACKBONE|DICT|INTERRES
    55   27   91 1    
    56   28   29 2    
    57   28   30 1    
    58   30   31 1    
    59   30   32 1    
    60   30   92 1    
    61   31   93 1    
    62   31   94 1    
    63   31   95 1    
    64   32   33 am   BACKBONE|DICT|INTERRES
    65   32   96 1    
    66   33   34 2    
    67   33   35 1    
    68   35   36 1    
    69   35   37 1    
    70   35   97 1    
    71   36   98 1    
    72   36   99 1    
    73   36  100 1    
    74   37   38 am   BACKBONE|DICT|INTERRES
    75   37  101 1    
    76   38   39 2    
    77   38   40 1    
    78   40   41 1    
    79   40   42 1    
    80   40  102 1    
    81   41  103 1    
    82   41  104 1    
    83   41  105 1    
    84   42   43 am   BACKBONE|DICT|INTERRES
    85   42  106 1    
    86   43   44 2    
    87   43   45 1    
    88   45   46 1    
    89   45   49 1    
    90   45  107 1    
    91   46   47 1    
    92   46  108 1    
    93   46  109 1    
    94   47   48 1    
    95   48  110 1    
    96   48  111 1    
    97   49   50 am   BACKBONE|DICT|INTERRES
    98   49  112 1    
    99   50   51 2    
   100   50   52 1    
   101   52   53 1    
   102   52   54 1    
   103   52  113 1    
   104   53  114 1    
   105   53  115 1    
   106   53  116 1    
   107   54   55 am   BACKBONE|DICT|INTERRES
   108   54  117 1    
   109   55   56 2    
   110   55   57 1    
   111   57   58 1    
   112   57   59 1    
   113   57  118 1    
   114   58  119 1    
   115   58  120 1    
   116   58  121 1    
   117   59   60 am   BACKBONE|DICT|INTERRES
   118   59  122 1    
   119   60   61 2    
   120   60   62 1    
   121   62   63 1    
   122   62   64 1    
   123   62  123 1    
   124   63  124 1    
   125   63  125 1    
   126   63  126 1    
   127   64   65 am   BACKBONE|DICT|INTERRES
   128   64  127 1    
   129   65   66 2    
@<TRIPOS>SUBSTRUCTURE
     1 UNK         1 GROUP             0       ****    0 ROOT    
