@<TRIPOS>MOLECULE
3R135
127   129    1
SMALL
USER_CHARGES


@<TRIPOS>ATOM
      1 CA        -83.6006   28.9263  -74.4069 C.3       0 UNK        -0.1998 
      2 C         -82.3854   29.1241  -75.3003 C.2       0 UNK         0.4909 
      3 O         -82.5019   29.7250  -76.3686 O.2       0 UNK        -0.5240 
      4 N         -81.2201   28.6204  -74.8719 N.am      1 UNK        -0.4739 
      5 CA        -79.9445   28.7275  -75.5982 C.3       1 UNK         0.0864 
      6 C6        -78.7270   28.5157  -74.6611 C.3       11 UNK        -0.0881 
      7 S7        -78.6590   29.8071  -73.3727 S.3       11 UNK        -0.2682 
      8 C8        -79.0041   28.8801  -71.8444 C.3       11 UNK         0.0289 
      9 C9        -77.7223   28.5158  -71.1097 C.ar      11 UNK        -0.0687 
     10 C10       -77.2617   27.1954  -71.0805 C.ar      11 UNK        -0.0823 
     11 C11       -76.0968   26.8677  -70.3760 C.ar      11 UNK        -0.0830 
     12 C12       -75.3880   27.8728  -69.7118 C.ar      11 UNK        -0.1021 
     13 C13       -75.8332   29.1968  -69.7440 C.ar      11 UNK        -0.0753 
     14 C14       -77.0078   29.5095  -70.4330 C.ar      11 UNK        -0.0933 
     15 C15       -75.0455   30.2835  -69.0285 C.3       11 UNK         0.0166 
     16 S16       -73.5907   30.8043  -69.9915 S.3       11 UNK        -0.2615 
     17 C17       -74.3494   31.7801  -71.3392 C.3       11 UNK        -0.0865 
     18 CA        -74.5428   30.9860  -72.6616 C.3       10 UNK         0.0862 
     19 C         -75.2035   31.8747  -73.7584 C.2       10 UNK         0.5551 
     20 N         -74.6615   31.9584  -74.9675 N.am      10 UNK        -0.7319 
     21 O         -76.2204   32.5146  -73.5038 O.2       10 UNK        -0.5018 
     22 N         -73.3007   30.3137  -73.0802 N.am      10 UNK        -0.4509 
     23 C         -73.2451   29.1930  -73.8060 C.2       10 UNK         0.4899 
     24 O         -74.2296   28.5956  -74.2428 O.2       10 UNK        -0.4839 
     25 CA        -71.8421   28.6404  -74.0735 C.3       9 UNK         0.0222 
     26 CB        -71.2606   27.9752  -72.8085 C.3       9 UNK        -0.1966 
     27 N         -71.9121   27.6835  -75.1754 N.am      9 UNK        -0.4218 
     28 C         -70.8720   27.2444  -75.8929 C.2       9 UNK         0.5020 
     29 O         -69.7083   27.5992  -75.6968 O.2       9 UNK        -0.5274 
     30 CA        -71.1588   26.2324  -77.0148 C.3       8 UNK         0.0270 
     31 CB        -70.9178   24.7988  -76.5131 C.3       8 UNK        -0.1976 
     32 N         -72.5067   26.3419  -77.5878 N.am      8 UNK        -0.4313 
     33 C         -72.8677   27.3037  -78.4526 C.2       8 UNK         0.5041 
     34 O         -72.1232   28.2323  -78.7716 O.2       8 UNK        -0.5577 
     35 CA        -74.2550   27.2201  -79.1205 C.3       7 UNK         0.0284 
     36 CB        -74.1081   26.9045  -80.6194 C.3       7 UNK        -0.1958 
     37 N         -75.1471   26.2262  -78.5219 N.am      7 UNK        -0.4454 
     38 C         -75.9037   26.4438  -77.4397 C.2       7 UNK         0.5089 
     39 O         -75.9270   27.5131  -76.8330 O.2       7 UNK        -0.5125 
     40 CA        -76.7559   25.2661  -76.9182 C.3       6 UNK         0.0408 
     41 CB        -76.8272   24.0527  -77.8712 C.3       6 UNK        -0.1791 
     42 N         -76.3262   24.8341  -75.5854 N.am      6 UNK        -0.4762 
     43 C         -75.0755   24.5225  -75.2062 C.2       6 UNK         0.5007 
     44 O         -74.1121   24.5032  -75.9730 O.2       6 UNK        -0.5032 
     45 CA        -74.8601   24.1827  -73.7194 C.3       5 UNK         0.0783 
     46 C46       -74.5344   25.4732  -72.9327 C.3       11 UNK        -0.0857 
     47 S47       -74.0551   25.1501  -71.2039 S.3       11 UNK        -0.2512 
     48 C48       -75.6154   25.4250  -70.3013 C.3       11 UNK         0.0225 
     49 N         -76.0140   23.4743  -73.1624 N.am      5 UNK        -0.4615 
     50 C         -76.3347   22.2049  -73.4324 C.2       4 UNK         0.5053 
     51 O         -75.6423   21.4498  -74.1150 O.2       4 UNK        -0.5105 
     52 CA        -77.6753   21.6979  -72.8739 C.3       4 UNK         0.0263 
     53 CB        -78.0519   22.3114  -71.5056 C.3       4 UNK        -0.1981 
     54 N         -78.7565   21.8698  -73.8509 N.am      4 UNK        -0.4224 
     55 C         -79.1976   23.0193  -74.3822 C.2       3 UNK         0.4895 
     56 O         -78.7774   24.1412  -74.0750 O.2       3 UNK        -0.5091 
     57 CA        -80.2998   22.8885  -75.4386 C.3       3 UNK         0.0250 
     58 CB        -81.6519   22.5283  -74.7960 C.3       3 UNK        -0.1996 
     59 N         -80.4161   24.1610  -76.1404 N.am      3 UNK        -0.4254 
     60 C         -80.7929   24.3311  -77.4122 C.2       2 UNK         0.5004 
     61 O         -81.1074   23.4022  -78.1574 O.2       2 UNK        -0.5226 
     62 CA        -80.8332   25.7755  -77.9427 C.3       2 UNK         0.0269 
     63 CB        -82.1199   26.0531  -78.7421 C.3       2 UNK        -0.1926 
     64 N         -80.7280   26.7583  -76.8584 N.am      2 UNK        -0.4687 
     65 C         -79.8771   27.7924  -76.8265 C.2       1 UNK         0.5165 
     66 O         -79.0687   28.0309  -77.7235 O.2       1 UNK        -0.5079 
     67 H67       -83.3534   28.3828  -73.4952 H         1 UNK         0.0900 
     68 H68       -84.3697   28.3662  -74.9381 H         1 UNK         0.0900 
     69 H69       -84.0175   29.8921  -74.1226 H         1 UNK         0.0900 
     70 H70       -81.1785   28.1573  -73.9758 H         1 UNK         0.2959 
     71 H71       -79.8770   29.7423  -75.9979 H         1 UNK         0.1079 
     72 H72       -78.7397   27.5215  -74.2106 H         1 UNK         0.0837 
     73 H73       -77.7940   28.5782  -75.2247 H         1 UNK         0.0837 
     74 H74       -79.6015   27.9934  -72.0604 H         1 UNK         0.0685 
     75 H75       -79.6183   29.5042  -71.1937 H         1 UNK         0.0685 
     76 H76       -77.8171   26.4239  -71.5962 H         1 UNK         0.1434 
     77 H77       -74.4828   27.6248  -69.1742 H         1 UNK         0.1329 
     78 H78       -77.3615   30.5312  -70.4585 H         1 UNK         0.1335 
     79 H79       -75.6764   31.1474  -68.8132 H         1 UNK         0.0680 
     80 H80       -74.7082   29.9065  -68.0619 H         1 UNK         0.0680 
     81 H81       -73.7131   32.6491  -71.5163 H         1 UNK         0.1032 
     82 H82       -75.3037   32.1801  -70.9919 H         1 UNK         0.1032 
     83 H83       -75.2742   30.2026  -72.4600 H         1 UNK         0.0461 
     84 H84       -75.0976   32.5393  -75.6658 H         1 UNK         0.3453 
     85 H85       -73.8331   31.4316  -75.1906 H         1 UNK         0.3453 
     86 H86       -72.4426   30.7362  -72.7579 H         1 UNK         0.2984 
     87 H87       -71.2019   29.4724  -74.3744 H         1 UNK         0.0554 
     88 H88       -70.2454   27.6151  -72.9742 H         1 UNK         0.0847 
     89 H89       -71.8640   27.1292  -72.4804 H         1 UNK         0.0847 
     90 H90       -71.2164   28.6798  -71.9771 H         1 UNK         0.0847 
     91 H91       -72.8522   27.3955  -75.4212 H         1 UNK         0.3141 
     92 H92       -70.4396   26.4238  -77.8144 H         1 UNK         0.0743 
     93 H93       -69.8778   24.6646  -76.2126 H         1 UNK         0.0784 
     94 H94       -71.5343   24.5624  -75.6455 H         1 UNK         0.0784 
     95 H95       -71.1285   24.0621  -77.2884 H         1 UNK         0.0784 
     96 H96       -73.1809   25.6350  -77.3059 H         1 UNK         0.3213 
     97 H97       -74.7141   28.2073  -79.0292 H         1 UNK         0.0855 
     98 H98       -73.4856   27.6494  -81.1172 H         1 UNK         0.0814 
     99 H99       -75.0751   26.9074  -81.1229 H         1 UNK         0.0814 
    100 H100      -73.6445   25.9311  -80.7845 H         1 UNK         0.0814 
    101 H101      -75.1591   25.3091  -78.9442 H         1 UNK         0.3105 
    102 H102      -77.7687   25.6511  -76.8022 H         1 UNK         0.0547 
    103 H103      -77.1938   24.3431  -78.8567 H         1 UNK         0.0837 
    104 H104      -75.8583   23.5688  -77.9994 H         1 UNK         0.0837 
    105 H105      -77.5169   23.3005  -77.4878 H         1 UNK         0.0837 
    106 H106      -77.0601   24.7911  -74.8853 H         1 UNK         0.3020 
    107 H107      -73.9938   23.5188  -73.6663 H         1 UNK         0.1245 
    108 H108      -75.3661   26.1787  -72.9687 H         1 UNK         0.0781 
    109 H109      -73.6943   25.9874  -73.4009 H         1 UNK         0.0781 
    110 H110      -75.4600   25.1601  -69.2545 H         1 UNK         0.0836 
    111 H111      -76.3781   24.7403  -70.6700 H         1 UNK         0.0836 
    112 H112      -76.6783   24.0279  -72.6439 H         1 UNK         0.3022 
    113 H113      -77.5582   20.6231  -72.7251 H         1 UNK         0.0747 
    114 H114      -78.9168   21.8031  -71.0794 H         1 UNK         0.0793 
    115 H115      -77.2348   22.2046  -70.7908 H         1 UNK         0.0793 
    116 H116      -78.2991   23.3710  -71.5695 H         1 UNK         0.0793 
    117 H117      -79.1596   21.0086  -74.1940 H         1 UNK         0.3047 
    118 H118      -80.0046   22.1083  -76.1438 H         1 UNK         0.0822 
    119 H119      -82.4362   22.4400  -75.5480 H         1 UNK         0.0807 
    120 H120      -81.9663   23.2821  -74.0729 H         1 UNK         0.0807 
    121 H121      -81.6009   21.5733  -74.2719 H         1 UNK         0.0807 
    122 H122      -80.0865   24.9549  -75.6068 H         1 UNK         0.2946 
    123 H123      -79.9817   25.8686  -78.6207 H         1 UNK         0.1144 
    124 H124      -82.1277   27.0692  -79.1370 H         1 UNK         0.0793 
    125 H125      -83.0110   25.9266  -78.1262 H         1 UNK         0.0793 
    126 H126      -82.2105   25.3770  -79.5933 H         1 UNK         0.0793 
    127 H127      -81.3820   26.6586  -76.0944 H         1 UNK         0.2896 
@<TRIPOS>BOND
     1    1    2 1    
     2    1   67 1    
     3    1   68 1    
     4    1   69 1    
     5    2    3 2    
     6    2    4 am   BACKBONE|DICT|INTERRES
     7    4    5 1    
     8    4   70 1    
     9    5    6 1    
    10    5   65 1    
    11    5   71 1    
    12    6    7 1    
    13    6   72 1    
    14    6   73 1    
    15    7    8 1    
    16    8    9 1    
    17    8   74 1    
    18    8   75 1    
    19    9   10 ar   
    20    9   14 ar   
    21   10   11 ar   
    22   10   76 1    
    23   11   12 ar   
    24   11   48 1    
    25   12   13 ar   
    26   12   77 1    
    27   13   14 ar   
    28   13   15 1    
    29   14   78 1    
    30   15   16 1    
    31   15   79 1    
    32   15   80 1    
    33   16   17 1    
    34   17   18 1    
    35   17   81 1    
    36   17   82 1    
    37   18   19 1    
    38   18   22 1    
    39   18   83 1    
    40   19   20 am   BACKBONE|DICT|INTERRES
    41   19   21 2    
    42   20   84 1    
    43   20   85 1    
    44   22   23 am   BACKBONE|DICT|INTERRES
    45   22   86 1    
    46   23   24 2    
    47   23   25 1    
    48   25   26 1    
    49   25   27 1    
    50   25   87 1    
    51   26   88 1    
    52   26   89 1    
    53   26   90 1    
    54   27   28 am   BACKBONE|DICT|INTERRES
    55   27   91 1    
    56   28   29 2    
    57   28   30 1    
    58   30   31 1    
    59   30   32 1    
    60   30   92 1    
    61   31   93 1    
    62   31   94 1    
    63   31   95 1    
    64   32   33 am   BACKBONE|DICT|INTERRES
    65   32   96 1    
    66   33   34 2    
    67   33   35 1    
    68   35   36 1    
    69   35   37 1    
    70   35   97 1    
    71   36   98 1    
    72   36   99 1    
    73   36  100 1    
    74   37   38 am   BACKBONE|DICT|INTERRES
    75   37  101 1    
    76   38   39 2    
    77   38   40 1    
    78   40   41 1    
    79   40   42 1    
    80   40  102 1    
    81   41  103 1    
    82   41  104 1    
    83   41  105 1    
    84   42   43 am   BACKBONE|DICT|INTERRES
    85   42  106 1    
    86   43   44 2    
    87   43   45 1    
    88   45   46 1    
    89   45   49 1    
    90   45  107 1    
    91   46   47 1    
    92   46  108 1    
    93   46  109 1    
    94   47   48 1    
    95   48  110 1    
    96   48  111 1    
    97   49   50 am   BACKBONE|DICT|INTERRES
    98   49  112 1    
    99   50   51 2    
   100   50   52 1    
   101   52   53 1    
   102   52   54 1    
   103   52  113 1    
   104   53  114 1    
   105   53  115 1    
   106   53  116 1    
   107   54   55 am   BACKBONE|DICT|INTERRES
   108   54  117 1    
   109   55   56 2    
   110   55   57 1    
   111   57   58 1    
   112   57   59 1    
   113   57  118 1    
   114   58  119 1    
   115   58  120 1    
   116   58  121 1    
   117   59   60 am   BACKBONE|DICT|INTERRES
   118   59  122 1    
   119   60   61 2    
   120   60   62 1    
   121   62   63 1    
   122   62   64 1    
   123   62  123 1    
   124   63  124 1    
   125   63  125 1    
   126   63  126 1    
   127   64   65 am   BACKBONE|DICT|INTERRES
   128   64  127 1    
   129   65   66 2    
@<TRIPOS>SUBSTRUCTURE
     1 UNK         1 GROUP             0       ****    0 ROOT    
