@<TRIPOS>MOLECULE
3R135
127   129    1
SMALL
USER_CHARGES


@<TRIPOS>ATOM
      1 CA        -78.8213   21.3680  -74.9432 C.3       0 UNK        -0.1998 
      2 C         -78.4288   22.2106  -73.7391 C.2       0 UNK         0.4909 
      3 O         -77.8007   21.6998  -72.8118 O.2       0 UNK        -0.5240 
      4 N         -78.8110   23.4917  -73.7401 N.am      1 UNK        -0.4739 
      5 CA        -78.5082   24.4742  -72.6899 C.3       1 UNK         0.0864 
      6 C6        -77.9422   25.7901  -73.2855 C.3       11 UNK        -0.0881 
      7 S7        -76.4129   25.5153  -74.2410 S.3       11 UNK        -0.2682 
      8 C8        -75.3266   26.8531  -73.6561 C.3       11 UNK         0.0289 
      9 C9        -75.9055   28.2306  -73.9465 C.ar      11 UNK        -0.0687 
     10 C10       -76.0188   28.6809  -75.2645 C.ar      11 UNK        -0.0823 
     11 C11       -76.5838   29.9255  -75.5492 C.ar      11 UNK        -0.0830 
     12 C12       -76.9849   30.7497  -74.4940 C.ar      11 UNK        -0.1021 
     13 C13       -76.8409   30.3291  -73.1683 C.ar      11 UNK        -0.0753 
     14 C14       -76.3189   29.0599  -72.9004 C.ar      11 UNK        -0.0933 
     15 C15       -77.2603   31.2485  -72.0321 C.3       11 UNK         0.0166 
     16 S16       -75.9344   32.4179  -71.5902 S.3       11 UNK        -0.2615 
     17 C17       -74.8197   31.3737  -70.5875 C.3       11 UNK        -0.0865 
     18 CA        -73.3910   31.2345  -71.1790 C.3       10 UNK         0.0862 
     19 C         -72.4736   30.4570  -70.1866 C.2       10 UNK         0.5551 
     20 N         -71.9950   29.2596  -70.5047 N.am      10 UNK        -0.7319 
     21 O         -72.1917   30.9568  -69.1002 O.2       10 UNK        -0.5018 
     22 N         -73.4077   30.7005  -72.5505 N.am      10 UNK        -0.4509 
     23 C         -72.3657   30.7184  -73.3896 C.2       10 UNK         0.4899 
     24 O         -71.2916   31.2763  -73.1557 O.2       10 UNK        -0.4839 
     25 CA        -72.5504   29.9573  -74.7112 C.3       9 UNK         0.0222 
     26 CB        -72.4260   30.8935  -75.9233 C.3       9 UNK        -0.1966 
     27 N         -71.6072   28.8458  -74.8471 N.am      9 UNK        -0.4218 
     28 C         -71.4881   27.8087  -74.0068 C.2       9 UNK         0.5020 
     29 O         -72.1592   27.6828  -72.9798 O.2       9 UNK        -0.5274 
     30 CA        -70.4680   26.7181  -74.3970 C.3       8 UNK         0.0270 
     31 CB        -70.4552   25.5397  -73.4046 C.3       8 UNK        -0.1976 
     32 N         -70.7113   26.1960  -75.7458 N.am      8 UNK        -0.4313 
     33 C         -70.3646   26.8041  -76.8878 C.2       8 UNK         0.5041 
     34 O         -69.7613   27.8779  -76.9263 O.2       8 UNK        -0.5577 
     35 CA        -70.7901   26.1298  -78.2061 C.3       7 UNK         0.0284 
     36 CB        -69.6757   25.2015  -78.7157 C.3       7 UNK        -0.1958 
     37 N         -72.0542   25.3829  -78.1369 N.am      7 UNK        -0.4454 
     38 C         -73.2420   25.9137  -77.8166 C.2       7 UNK         0.5089 
     39 O         -73.3983   27.0914  -77.4767 O.2       7 UNK        -0.5125 
     40 CA        -74.4605   24.9778  -77.8846 C.3       6 UNK         0.0408 
     41 CB        -74.3671   23.8353  -76.8566 C.3       6 UNK        -0.1791 
     42 N         -75.6306   25.7983  -77.6074 N.am      6 UNK        -0.4762 
     43 C         -76.8794   25.6348  -78.0471 C.2       6 UNK         0.5007 
     44 O         -77.2560   24.6722  -78.7220 O.2       6 UNK        -0.5032 
     45 CA        -77.8501   26.7800  -77.7006 C.3       5 UNK         0.0783 
     46 C46       -77.4753   28.0685  -78.4872 C.3       11 UNK        -0.0857 
     47 S47       -78.1973   29.5923  -77.7885 S.3       11 UNK        -0.2512 
     48 C48       -76.7560   30.3833  -76.9912 C.3       11 UNK         0.0225 
     49 N         -79.2091   26.3248  -77.9847 N.am      5 UNK        -0.4615 
     50 C         -80.2831   26.5321  -77.2173 C.2       4 UNK         0.5053 
     51 O         -80.2728   27.2243  -76.1976 O.2       4 UNK        -0.5105 
     52 CA        -81.6048   25.8723  -77.6726 C.3       4 UNK         0.0263 
     53 CB        -81.4086   24.6667  -78.6227 C.3       4 UNK        -0.1981 
     54 N         -82.4670   25.4971  -76.5433 N.am      4 UNK        -0.4224 
     55 C         -82.1591   24.6494  -75.5523 C.2       3 UNK         0.4895 
     56 O         -81.0898   24.0347  -75.4672 O.2       3 UNK        -0.5091 
     57 CA        -83.2359   24.4371  -74.4792 C.3       3 UNK         0.0250 
     58 CB        -84.3062   23.4366  -74.9489 C.3       3 UNK        -0.1996 
     59 N         -82.5658   23.9205  -73.2950 N.am      3 UNK        -0.4254 
     60 C         -82.8887   24.1457  -72.0175 C.2       2 UNK         0.5004 
     61 O         -83.9203   24.7117  -71.6546 O.2       2 UNK        -0.5226 
     62 CA        -81.8591   23.6798  -70.9681 C.3       2 UNK         0.0269 
     63 CB        -82.2347   22.2939  -70.4196 C.3       2 UNK        -0.1926 
     64 N         -80.4958   23.6327  -71.5138 N.am      2 UNK        -0.4687 
     65 C         -79.7769   24.7168  -71.8457 C.2       1 UNK         0.5165 
     66 O         -80.1212   25.8635  -71.5538 O.2       1 UNK        -0.5079 
     67 H67       -77.9376   20.9035  -75.3796 H         1 UNK         0.0900 
     68 H68       -79.3044   21.9648  -75.7170 H         1 UNK         0.0900 
     69 H69       -79.5099   20.5790  -74.6424 H         1 UNK         0.0900 
     70 H70       -79.3930   23.8318  -74.5017 H         1 UNK         0.2959 
     71 H71       -77.7575   24.0749  -72.0045 H         1 UNK         0.1079 
     72 H72       -78.6733   26.2663  -73.9424 H         1 UNK         0.0837 
     73 H73       -77.7360   26.5052  -72.4873 H         1 UNK         0.0837 
     74 H74       -75.1289   26.7234  -72.5909 H         1 UNK         0.0685 
     75 H75       -74.3659   26.7575  -74.1626 H         1 UNK         0.0685 
     76 H76       -75.6711   28.0571  -76.0708 H         1 UNK         0.1434 
     77 H77       -77.4071   31.7236  -74.7018 H         1 UNK         0.1329 
     78 H78       -76.2291   28.7190  -71.8782 H         1 UNK         0.1335 
     79 H79       -78.1412   31.8183  -72.3320 H         1 UNK         0.0680 
     80 H80       -77.5597   30.6726  -71.1550 H         1 UNK         0.0680 
     81 H81       -75.2642   30.3893  -70.4357 H         1 UNK         0.1032 
     82 H82       -74.7709   31.8268  -69.5952 H         1 UNK         0.1032 
     83 H83       -72.9706   32.2400  -71.2431 H         1 UNK         0.0461 
     84 H84       -72.2010   28.8284  -71.4011 H         1 UNK         0.3453 
     85 H85       -71.4049   28.7781  -69.8459 H         1 UNK         0.3453 
     86 H86       -74.2566   30.2302  -72.8317 H         1 UNK         0.2984 
     87 H87       -73.5493   29.5274  -74.7276 H         1 UNK         0.0554 
     88 H88       -72.6344   30.3646  -76.8539 H         1 UNK         0.0847 
     89 H89       -71.4282   31.3276  -75.9978 H         1 UNK         0.0847 
     90 H90       -73.1379   31.7170  -75.8529 H         1 UNK         0.0847 
     91 H91       -71.0030   28.8471  -75.6631 H         1 UNK         0.3141 
     92 H92       -69.4796   27.1820  -74.3723 H         1 UNK         0.0743 
     93 H93       -70.2287   25.8826  -72.3941 H         1 UNK         0.0784 
     94 H94       -69.6970   24.8033  -73.6714 H         1 UNK         0.0784 
     95 H95       -71.4201   25.0321  -73.3678 H         1 UNK         0.0784 
     96 H96       -71.2383   25.3376  -75.8101 H         1 UNK         0.3213 
     97 H97       -70.9278   26.9275  -78.9395 H         1 UNK         0.0855 
     98 H98       -68.7291   25.7378  -78.7992 H         1 UNK         0.0814 
     99 H99       -69.9079   24.8058  -79.7046 H         1 UNK         0.0814 
    100 H100      -69.5130   24.3576  -78.0440 H         1 UNK         0.0814 
    101 H101      -72.0177   24.4103  -78.4077 H         1 UNK         0.3105 
    102 H102      -74.5312   24.5696  -78.8947 H         1 UNK         0.0547 
    103 H103      -74.1939   24.2132  -75.8484 H         1 UNK         0.0837 
    104 H104      -73.5509   23.1529  -77.0947 H         1 UNK         0.0837 
    105 H105      -75.2831   23.2446  -76.8358 H         1 UNK         0.0837 
    106 H106      -75.3764   26.6555  -77.1343 H         1 UNK         0.3020 
    107 H107      -77.7569   26.9598  -76.6273 H         1 UNK         0.1245 
    108 H108      -77.8046   27.9830  -79.5244 H         1 UNK         0.0781 
    109 H109      -76.3943   28.2058  -78.5441 H         1 UNK         0.0781 
    110 H110      -76.9014   31.4642  -77.0216 H         1 UNK         0.0836 
    111 H111      -75.8440   30.1938  -77.5590 H         1 UNK         0.0836 
    112 H112      -79.2749   25.6784  -78.7598 H         1 UNK         0.3022 
    113 H113      -82.1478   26.6414  -78.2237 H         1 UNK         0.0747 
    114 H114      -82.3632   24.2005  -78.8671 H         1 UNK         0.0793 
    115 H115      -80.9579   24.9707  -79.5680 H         1 UNK         0.0793 
    116 H116      -80.7712   23.8993  -78.1810 H         1 UNK         0.0793 
    117 H117      -83.3575   25.9733  -76.5032 H         1 UNK         0.3047 
    118 H118      -83.6975   25.3996  -74.2481 H         1 UNK         0.0822 
    119 H119      -85.0592   23.2719  -74.1780 H         1 UNK         0.0807 
    120 H120      -83.8690   22.4695  -75.2013 H         1 UNK         0.0807 
    121 H121      -84.8251   23.8028  -75.8355 H         1 UNK         0.0807 
    122 H122      -81.6745   23.4869  -73.4983 H         1 UNK         0.2946 
    123 H123      -81.8804   24.3979  -70.1449 H         1 UNK         0.1144 
    124 H124      -83.2362   22.3049  -69.9871 H         1 UNK         0.0793 
    125 H125      -81.5477   21.9785  -69.6340 H         1 UNK         0.0793 
    126 H126      -82.2255   21.5327  -71.2008 H         1 UNK         0.0793 
    127 H127      -80.1327   22.7245  -71.7684 H         1 UNK         0.2896 
@<TRIPOS>BOND
     1    1    2 1    
     2    1   67 1    
     3    1   68 1    
     4    1   69 1    
     5    2    3 2    
     6    2    4 am   BACKBONE|DICT|INTERRES
     7    4    5 1    
     8    4   70 1    
     9    5    6 1    
    10    5   65 1    
    11    5   71 1    
    12    6    7 1    
    13    6   72 1    
    14    6   73 1    
    15    7    8 1    
    16    8    9 1    
    17    8   74 1    
    18    8   75 1    
    19    9   10 ar   
    20    9   14 ar   
    21   10   11 ar   
    22   10   76 1    
    23   11   12 ar   
    24   11   48 1    
    25   12   13 ar   
    26   12   77 1    
    27   13   14 ar   
    28   13   15 1    
    29   14   78 1    
    30   15   16 1    
    31   15   79 1    
    32   15   80 1    
    33   16   17 1    
    34   17   18 1    
    35   17   81 1    
    36   17   82 1    
    37   18   19 1    
    38   18   22 1    
    39   18   83 1    
    40   19   20 am   BACKBONE|DICT|INTERRES
    41   19   21 2    
    42   20   84 1    
    43   20   85 1    
    44   22   23 am   BACKBONE|DICT|INTERRES
    45   22   86 1    
    46   23   24 2    
    47   23   25 1    
    48   25   26 1    
    49   25   27 1    
    50   25   87 1    
    51   26   88 1    
    52   26   89 1    
    53   26   90 1    
    54   27   28 am   BACKBONE|DICT|INTERRES
    55   27   91 1    
    56   28   29 2    
    57   28   30 1    
    58   30   31 1    
    59   30   32 1    
    60   30   92 1    
    61   31   93 1    
    62   31   94 1    
    63   31   95 1    
    64   32   33 am   BACKBONE|DICT|INTERRES
    65   32   96 1    
    66   33   34 2    
    67   33   35 1    
    68   35   36 1    
    69   35   37 1    
    70   35   97 1    
    71   36   98 1    
    72   36   99 1    
    73   36  100 1    
    74   37   38 am   BACKBONE|DICT|INTERRES
    75   37  101 1    
    76   38   39 2    
    77   38   40 1    
    78   40   41 1    
    79   40   42 1    
    80   40  102 1    
    81   41  103 1    
    82   41  104 1    
    83   41  105 1    
    84   42   43 am   BACKBONE|DICT|INTERRES
    85   42  106 1    
    86   43   44 2    
    87   43   45 1    
    88   45   46 1    
    89   45   49 1    
    90   45  107 1    
    91   46   47 1    
    92   46  108 1    
    93   46  109 1    
    94   47   48 1    
    95   48  110 1    
    96   48  111 1    
    97   49   50 am   BACKBONE|DICT|INTERRES
    98   49  112 1    
    99   50   51 2    
   100   50   52 1    
   101   52   53 1    
   102   52   54 1    
   103   52  113 1    
   104   53  114 1    
   105   53  115 1    
   106   53  116 1    
   107   54   55 am   BACKBONE|DICT|INTERRES
   108   54  117 1    
   109   55   56 2    
   110   55   57 1    
   111   57   58 1    
   112   57   59 1    
   113   57  118 1    
   114   58  119 1    
   115   58  120 1    
   116   58  121 1    
   117   59   60 am   BACKBONE|DICT|INTERRES
   118   59  122 1    
   119   60   61 2    
   120   60   62 1    
   121   62   63 1    
   122   62   64 1    
   123   62  123 1    
   124   63  124 1    
   125   63  125 1    
   126   63  126 1    
   127   64   65 am   BACKBONE|DICT|INTERRES
   128   64  127 1    
   129   65   66 2    
@<TRIPOS>SUBSTRUCTURE
     1 UNK         1 GROUP             0       ****    0 ROOT    
