@<TRIPOS>MOLECULE
3R135
127   129    1
SMALL
USER_CHARGES


@<TRIPOS>ATOM
      1 CA        -83.3338   27.2217  -70.5216 C.3       0 UNK        -0.1998 
      2 C         -83.4897   27.3699  -72.0276 C.2       0 UNK         0.4909 
      3 O         -84.5881   27.1839  -72.5519 O.2       0 UNK        -0.5240 
      4 N         -82.3968   27.7051  -72.7259 N.am      1 UNK        -0.4739 
      5 CA        -82.3533   27.8971  -74.1833 C.3       1 UNK         0.0864 
      6 C6        -81.0374   28.5719  -74.6490 C.3       11 UNK        -0.0881 
      7 S7        -80.7021   30.1621  -73.8229 S.3       11 UNK        -0.2682 
      8 C8        -78.8986   30.3123  -74.0875 C.3       11 UNK         0.0289 
      9 C9        -78.0008   29.5098  -73.1396 C.ar      11 UNK        -0.0687 
     10 C10       -78.4877   28.5321  -72.2604 C.ar      11 UNK        -0.0823 
     11 C11       -77.6237   27.8330  -71.4131 C.ar      11 UNK        -0.0830 
     12 C12       -76.2585   28.1265  -71.4310 C.ar      11 UNK        -0.1021 
     13 C13       -75.7524   29.0875  -72.3083 C.ar      11 UNK        -0.0753 
     14 C14       -76.6263   29.7692  -73.1602 C.ar      11 UNK        -0.0933 
     15 C15       -74.2597   29.3692  -72.3515 C.3       11 UNK         0.0166 
     16 S16       -73.8763   31.0474  -71.7617 S.3       11 UNK        -0.2615 
     17 C17       -72.0540   30.9961  -71.6724 C.3       11 UNK        -0.0865 
     18 CA        -71.3716   31.5480  -72.9502 C.3       10 UNK         0.0862 
     19 C         -69.8482   31.7371  -72.7123 C.2       10 UNK         0.5551 
     20 N         -69.4039   32.9623  -72.4682 N.am      10 UNK        -0.7319 
     21 O         -69.0797   30.7781  -72.6955 O.2       10 UNK        -0.5018 
     22 N         -71.6570   30.6917  -74.1095 N.am      10 UNK        -0.4509 
     23 C         -71.3381   30.9573  -75.3813 C.2       10 UNK         0.4899 
     24 O         -70.8074   32.0082  -75.7443 O.2       10 UNK        -0.4839 
     25 CA        -71.7119   29.8922  -76.4354 C.3       9 UNK         0.0222 
     26 CB        -70.6992   29.8390  -77.5989 C.3       9 UNK        -0.1966 
     27 N         -71.9594   28.5432  -75.9021 N.am      9 UNK        -0.4218 
     28 C         -71.0849   27.7373  -75.2734 C.2       9 UNK         0.5020 
     29 O         -69.9313   28.0618  -74.9931 O.2       9 UNK        -0.5274 
     30 CA        -71.5674   26.3242  -74.8867 C.3       8 UNK         0.0270 
     31 CB        -71.9647   26.2758  -73.4030 C.3       8 UNK        -0.1976 
     32 N         -72.6823   25.8429  -75.7077 N.am      8 UNK        -0.4313 
     33 C         -72.5810   25.5525  -77.0146 C.2       8 UNK         0.5041 
     34 O         -71.5097   25.5433  -77.6230 O.2       8 UNK        -0.5577 
     35 CA        -73.8728   25.2428  -77.7970 C.3       7 UNK         0.0284 
     36 CB        -73.9686   23.7345  -78.0820 C.3       7 UNK        -0.1958 
     37 N         -75.1174   25.6945  -77.1642 N.am      7 UNK        -0.4454 
     38 C         -75.4103   26.9493  -76.7901 C.2       7 UNK         0.5089 
     39 O         -74.6573   27.9100  -76.9567 O.2       7 UNK        -0.5125 
     40 CA        -76.7375   27.1556  -76.0388 C.3       6 UNK         0.0408 
     41 CB        -77.8795   27.4256  -77.0291 C.3       6 UNK        -0.1791 
     42 N         -77.1058   26.0380  -75.1627 N.am      6 UNK        -0.4762 
     43 C         -76.3537   25.5426  -74.1657 C.2       6 UNK         0.5007 
     44 O         -75.2239   25.9485  -73.8904 O.2       6 UNK        -0.5032 
     45 CA        -76.9344   24.3329  -73.4119 C.3       5 UNK         0.0783 
     46 C46       -78.0806   24.7206  -72.4396 C.3       11 UNK        -0.0857 
     47 S47       -77.4543   25.1234  -70.7748 S.3       11 UNK        -0.2512 
     48 C48       -78.1678   26.7719  -70.4662 C.3       11 UNK         0.0225 
     49 N         -77.3610   23.3191  -74.3766 N.am      5 UNK        -0.4615 
     50 C         -76.5424   22.4255  -74.9480 C.2       4 UNK         0.5053 
     51 O         -75.3529   22.3036  -74.6562 O.2       4 UNK        -0.5105 
     52 CA        -77.1417   21.5086  -76.0305 C.3       4 UNK         0.0263 
     53 CB        -77.5346   20.1515  -75.4248 C.3       4 UNK        -0.1981 
     54 N         -78.3031   22.0845  -76.7138 N.am      4 UNK        -0.4224 
     55 C         -78.2584   23.1540  -77.5204 C.2       3 UNK         0.4895 
     56 O         -77.2275   23.7662  -77.7937 O.2       3 UNK        -0.5091 
     57 CA        -79.6033   23.6615  -78.0656 C.3       3 UNK         0.0250 
     58 CB        -80.0098   22.8732  -79.3208 C.3       3 UNK        -0.1996 
     59 N         -80.6962   23.6298  -77.0850 N.am      3 UNK        -0.4254 
     60 C         -80.6768   24.2544  -75.8996 C.2       2 UNK         0.5004 
     61 O         -79.6937   24.8521  -75.4515 O.2       2 UNK        -0.5226 
     62 CA        -81.9531   24.1782  -75.0484 C.3       2 UNK         0.0269 
     63 CB        -81.8375   23.0517  -74.0092 C.3       2 UNK        -0.1926 
     64 N         -82.1548   25.4512  -74.3576 N.am      2 UNK        -0.4687 
     65 C         -82.5365   26.5822  -74.9685 C.2       1 UNK         0.5165 
     66 O         -82.9736   26.6202  -76.1200 O.2       1 UNK        -0.5079 
     67 H67       -83.5974   26.2097  -70.2151 H         1 UNK         0.0900 
     68 H68       -82.3132   27.4201  -70.1945 H         1 UNK         0.0900 
     69 H69       -83.9957   27.9172  -70.0062 H         1 UNK         0.0900 
     70 H70       -81.5356   27.8887  -72.2352 H         1 UNK         0.2959 
     71 H71       -83.1864   28.5492  -74.4559 H         1 UNK         0.1079 
     72 H72       -81.0699   28.7639  -75.7236 H         1 UNK         0.0837 
     73 H73       -80.1905   27.9009  -74.4904 H         1 UNK         0.0837 
     74 H74       -78.6656   30.0360  -75.1169 H         1 UNK         0.0685 
     75 H75       -78.6436   31.3686  -73.9899 H         1 UNK         0.0685 
     76 H76       -79.5408   28.3079  -72.2220 H         1 UNK         0.1434 
     77 H77       -75.5887   27.5879  -70.7747 H         1 UNK         0.1329 
     78 H78       -76.2304   30.5128  -73.8388 H         1 UNK         0.1335 
     79 H79       -73.7186   28.6433  -71.7429 H         1 UNK         0.0680 
     80 H80       -73.9099   29.2456  -73.3765 H         1 UNK         0.0680 
     81 H81       -71.7659   31.5942  -70.8054 H         1 UNK         0.1032 
     82 H82       -71.7150   29.9811  -71.4553 H         1 UNK         0.1032 
     83 H83       -71.8031   32.5277  -73.1666 H         1 UNK         0.0461 
     84 H84       -68.4210   33.1020  -72.2931 H         1 UNK         0.3453 
     85 H85       -70.0294   33.7533  -72.4702 H         1 UNK         0.3453 
     86 H86       -72.0593   29.7914  -73.9065 H         1 UNK         0.2984 
     87 H87       -72.6664   30.2165  -76.8524 H         1 UNK         0.0554 
     88 H88       -70.9916   29.1005  -78.3456 H         1 UNK         0.0847 
     89 H89       -69.6972   29.5857  -77.2511 H         1 UNK         0.0847 
     90 H90       -70.6321   30.8014  -78.1077 H         1 UNK         0.0847 
     91 H91       -72.8859   28.1753  -76.1050 H         1 UNK         0.3141 
     92 H92       -70.7260   25.6433  -75.0330 H         1 UNK         0.0743 
     93 H93       -72.8180   26.9198  -73.1942 H         1 UNK         0.0784 
     94 H94       -72.2298   25.2637  -73.0965 H         1 UNK         0.0784 
     95 H95       -71.1425   26.6036  -72.7653 H         1 UNK         0.0784 
     96 H96       -73.5967   25.8183  -75.2667 H         1 UNK         0.3213 
     97 H97       -73.7927   25.7659  -78.7519 H         1 UNK         0.0855 
     98 H98       -74.1463   23.1634  -77.1699 H         1 UNK         0.0814 
     99 H99       -73.0478   23.3577  -78.5297 H         1 UNK         0.0814 
    100 H100      -74.7748   23.5129  -78.7810 H         1 UNK         0.0814 
    101 H101      -75.8404   24.9896  -77.0504 H         1 UNK         0.3105 
    102 H102      -76.6199   28.0352  -75.4049 H         1 UNK         0.0547 
    103 H103      -77.6593   28.2943  -77.6509 H         1 UNK         0.0837 
    104 H104      -78.0399   26.5783  -77.6960 H         1 UNK         0.0837 
    105 H105      -78.8172   27.6255  -76.5124 H         1 UNK         0.0837 
    106 H106      -78.0212   25.6208  -75.3227 H         1 UNK         0.3020 
    107 H107      -76.1188   23.9039  -72.8241 H         1 UNK         0.1245 
    108 H108      -78.7605   23.8775  -72.3084 H         1 UNK         0.0781 
    109 H109      -78.6974   25.5306  -72.8338 H         1 UNK         0.0781 
    110 H110      -77.9397   27.0660  -69.4408 H         1 UNK         0.0836 
    111 H111      -79.2550   26.7048  -70.5291 H         1 UNK         0.0836 
    112 H112      -78.3063   23.4103  -74.7258 H         1 UNK         0.3022 
    113 H113      -76.3642   21.3382  -76.7786 H         1 UNK         0.0747 
    114 H114      -77.8828   19.4596  -76.1920 H         1 UNK         0.0793 
    115 H115      -76.6813   19.6826  -74.9323 H         1 UNK         0.0793 
    116 H116      -78.3245   20.2545  -74.6796 H         1 UNK         0.0793 
    117 H117      -79.1983   21.6506  -76.5417 H         1 UNK         0.3047 
    118 H118      -79.4611   24.7046  -78.3545 H         1 UNK         0.0822 
    119 H119      -80.9012   23.2964  -79.7843 H         1 UNK         0.0807 
    120 H120      -80.2132   21.8257  -79.0948 H         1 UNK         0.0807 
    121 H121      -79.2168   22.8969  -80.0699 H         1 UNK         0.0807 
    122 H122      -81.5388   23.1499  -77.3683 H         1 UNK         0.2946 
    123 H123      -82.8123   23.9847  -75.6949 H         1 UNK         0.1144 
    124 H124      -82.7358   22.9869  -73.3948 H         1 UNK         0.0793 
    125 H125      -80.9866   23.1996  -73.3430 H         1 UNK         0.0793 
    126 H126      -81.7078   22.0832  -74.4940 H         1 UNK         0.0793 
    127 H127      -81.7906   25.5217  -73.4194 H         1 UNK         0.2896 
@<TRIPOS>BOND
     1    1    2 1    
     2    1   67 1    
     3    1   68 1    
     4    1   69 1    
     5    2    3 2    
     6    2    4 am   BACKBONE|DICT|INTERRES
     7    4    5 1    
     8    4   70 1    
     9    5    6 1    
    10    5   65 1    
    11    5   71 1    
    12    6    7 1    
    13    6   72 1    
    14    6   73 1    
    15    7    8 1    
    16    8    9 1    
    17    8   74 1    
    18    8   75 1    
    19    9   10 ar   
    20    9   14 ar   
    21   10   11 ar   
    22   10   76 1    
    23   11   12 ar   
    24   11   48 1    
    25   12   13 ar   
    26   12   77 1    
    27   13   14 ar   
    28   13   15 1    
    29   14   78 1    
    30   15   16 1    
    31   15   79 1    
    32   15   80 1    
    33   16   17 1    
    34   17   18 1    
    35   17   81 1    
    36   17   82 1    
    37   18   19 1    
    38   18   22 1    
    39   18   83 1    
    40   19   20 am   BACKBONE|DICT|INTERRES
    41   19   21 2    
    42   20   84 1    
    43   20   85 1    
    44   22   23 am   BACKBONE|DICT|INTERRES
    45   22   86 1    
    46   23   24 2    
    47   23   25 1    
    48   25   26 1    
    49   25   27 1    
    50   25   87 1    
    51   26   88 1    
    52   26   89 1    
    53   26   90 1    
    54   27   28 am   BACKBONE|DICT|INTERRES
    55   27   91 1    
    56   28   29 2    
    57   28   30 1    
    58   30   31 1    
    59   30   32 1    
    60   30   92 1    
    61   31   93 1    
    62   31   94 1    
    63   31   95 1    
    64   32   33 am   BACKBONE|DICT|INTERRES
    65   32   96 1    
    66   33   34 2    
    67   33   35 1    
    68   35   36 1    
    69   35   37 1    
    70   35   97 1    
    71   36   98 1    
    72   36   99 1    
    73   36  100 1    
    74   37   38 am   BACKBONE|DICT|INTERRES
    75   37  101 1    
    76   38   39 2    
    77   38   40 1    
    78   40   41 1    
    79   40   42 1    
    80   40  102 1    
    81   41  103 1    
    82   41  104 1    
    83   41  105 1    
    84   42   43 am   BACKBONE|DICT|INTERRES
    85   42  106 1    
    86   43   44 2    
    87   43   45 1    
    88   45   46 1    
    89   45   49 1    
    90   45  107 1    
    91   46   47 1    
    92   46  108 1    
    93   46  109 1    
    94   47   48 1    
    95   48  110 1    
    96   48  111 1    
    97   49   50 am   BACKBONE|DICT|INTERRES
    98   49  112 1    
    99   50   51 2    
   100   50   52 1    
   101   52   53 1    
   102   52   54 1    
   103   52  113 1    
   104   53  114 1    
   105   53  115 1    
   106   53  116 1    
   107   54   55 am   BACKBONE|DICT|INTERRES
   108   54  117 1    
   109   55   56 2    
   110   55   57 1    
   111   57   58 1    
   112   57   59 1    
   113   57  118 1    
   114   58  119 1    
   115   58  120 1    
   116   58  121 1    
   117   59   60 am   BACKBONE|DICT|INTERRES
   118   59  122 1    
   119   60   61 2    
   120   60   62 1    
   121   62   63 1    
   122   62   64 1    
   123   62  123 1    
   124   63  124 1    
   125   63  125 1    
   126   63  126 1    
   127   64   65 am   BACKBONE|DICT|INTERRES
   128   64  127 1    
   129   65   66 2    
@<TRIPOS>SUBSTRUCTURE
     1 UNK         1 GROUP             0       ****    0 ROOT    
