@<TRIPOS>MOLECULE
3R135
127   129    1
SMALL
USER_CHARGES


@<TRIPOS>ATOM
      1 CA        -80.7905   30.1118  -76.0594 C.3       0 UNK        -0.1998 
      2 C         -81.4657   29.2448  -75.0071 C.2       0 UNK         0.4909 
      3 O         -82.6568   28.9570  -75.1278 O.2       0 UNK        -0.5240 
      4 N         -80.7050   28.8286  -73.9851 N.am      1 UNK        -0.4739 
      5 CA        -81.1286   27.9826  -72.8576 C.3       1 UNK         0.0864 
      6 C6        -82.1151   28.6771  -71.8776 C.3       11 UNK        -0.0881 
      7 S7        -81.5233   30.2877  -71.2494 S.3       11 UNK        -0.2682 
      8 C8        -80.6788   29.8254  -69.7014 C.3       11 UNK         0.0289 
      9 C9        -79.2419   29.3947  -69.9570 C.ar      11 UNK        -0.0687 
     10 C10       -78.9007   28.0395  -70.0046 C.ar      11 UNK        -0.0823 
     11 C11       -77.5879   27.6500  -70.2887 C.ar      11 UNK        -0.0830 
     12 C12       -76.6031   28.6246  -70.4692 C.ar      11 UNK        -0.1021 
     13 C13       -76.9306   29.9812  -70.4162 C.ar      11 UNK        -0.0753 
     14 C14       -78.2510   30.3606  -70.1591 C.ar      11 UNK        -0.0933 
     15 C15       -75.8591   31.0367  -70.6382 C.3       11 UNK         0.0166 
     16 S16       -75.8571   31.6651  -72.3486 S.3       11 UNK        -0.2615 
     17 C17       -75.1814   30.2606  -73.3020 C.3       11 UNK        -0.0865 
     18 CA        -73.6464   30.3644  -73.5036 C.3       10 UNK         0.0862 
     19 C         -72.8579   29.7577  -72.3145 C.2       10 UNK         0.5551 
     20 N         -72.1346   30.5740  -71.5608 N.am      10 UNK        -0.7319 
     21 O         -72.9307   28.5595  -72.0508 O.2       10 UNK        -0.5018 
     22 N         -73.2363   29.7282  -74.7587 N.am      10 UNK        -0.4509 
     23 C         -72.1553   30.0816  -75.4650 C.2       10 UNK         0.4899 
     24 O         -71.4251   31.0307  -75.1727 O.2       10 UNK        -0.4839 
     25 CA        -71.8545   29.2330  -76.7132 C.3       9 UNK         0.0222 
     26 CB        -70.5310   29.6145  -77.4106 C.3       9 UNK        -0.1966 
     27 N         -71.9103   27.7949  -76.4360 N.am      9 UNK        -0.4218 
     28 C         -71.1364   27.0878  -75.5966 C.2       9 UNK         0.5020 
     29 O         -70.2075   27.5718  -74.9479 O.2       9 UNK        -0.5274 
     30 CA        -71.4389   25.5830  -75.4377 C.3       8 UNK         0.0270 
     31 CB        -71.9452   25.2880  -74.0154 C.3       8 UNK        -0.1976 
     32 N         -72.4083   25.0623  -76.4071 N.am      8 UNK        -0.4313 
     33 C         -72.1681   24.8689  -77.7114 C.2       8 UNK         0.5041 
     34 O         -71.0636   25.0224  -78.2338 O.2       8 UNK        -0.5577 
     35 CA        -73.3733   24.4895  -78.5907 C.3       7 UNK         0.0284 
     36 CB        -73.5949   22.9688  -78.5818 C.3       7 UNK        -0.1958 
     37 N         -74.6111   25.1777  -78.2028 N.am      7 UNK        -0.4454 
     38 C         -74.7915   26.5069  -78.2484 C.2       7 UNK         0.5089 
     39 O         -73.9416   27.2967  -78.6573 O.2       7 UNK        -0.5125 
     40 CA        -76.1131   27.0588  -77.6878 C.3       6 UNK         0.0408 
     41 CB        -77.2619   26.8797  -78.6918 C.3       6 UNK        -0.1791 
     42 N         -76.4697   26.4444  -76.4094 N.am      6 UNK        -0.4762 
     43 C         -75.7707   26.5800  -75.2724 C.2       6 UNK         0.5007 
     44 O         -74.7922   27.3186  -75.1546 O.2       6 UNK        -0.5032 
     45 CA        -76.2255   25.7155  -74.0802 C.3       5 UNK         0.0783 
     46 C46       -77.3432   26.4337  -73.2877 C.3       11 UNK        -0.0857 
     47 S47       -78.0163   25.4370  -71.9102 S.3       11 UNK        -0.2512 
     48 C48       -77.2348   26.1779  -70.4390 C.3       11 UNK         0.0225 
     49 N         -76.6195   24.3734  -74.5217 N.am      5 UNK        -0.4615 
     50 C         -75.7773   23.4527  -75.0074 C.2       4 UNK         0.5053 
     51 O         -74.5667   23.6320  -75.1275 O.2       4 UNK        -0.5105 
     52 CA        -76.3948   22.1226  -75.4700 C.3       4 UNK         0.0263 
     53 CB        -76.6046   21.1812  -74.2736 C.3       4 UNK        -0.1981 
     54 N         -77.6633   22.3065  -76.1792 N.am      4 UNK        -0.4224 
     55 C         -77.7888   22.9265  -77.3620 C.2       3 UNK         0.4895 
     56 O         -76.8382   23.3572  -78.0135 O.2       3 UNK        -0.5091 
     57 CA        -79.2219   23.1570  -77.8757 C.3       3 UNK         0.0250 
     58 CB        -79.7229   21.9294  -78.6525 C.3       3 UNK        -0.1996 
     59 N         -80.1730   23.4914  -76.8079 N.am      3 UNK        -0.4254 
     60 C         -80.0590   24.5597  -76.0070 C.2       2 UNK         0.5004 
     61 O         -79.1540   25.3947  -76.1091 O.2       2 UNK        -0.5226 
     62 CA        -81.0814   24.6881  -74.8707 C.3       2 UNK         0.0269 
     63 CB        -80.8855   23.5585  -73.8362 C.3       2 UNK        -0.1926 
     64 N         -80.8763   25.9953  -74.2550 N.am      2 UNK        -0.4687 
     65 C         -81.6215   26.5910  -73.3191 C.2       1 UNK         0.5165 
     66 O         -82.6427   26.0940  -72.8397 O.2       1 UNK        -0.5079 
     67 H67       -81.2959   31.0745  -76.1322 H         1 UNK         0.0900 
     68 H68       -80.8400   29.6257  -77.0334 H         1 UNK         0.0900 
     69 H69       -79.7420   30.2967  -75.8261 H         1 UNK         0.0900 
     70 H70       -79.7416   29.1300  -73.9476 H         1 UNK         0.2959 
     71 H71       -80.2159   27.7748  -72.3022 H         1 UNK         0.1079 
     72 H72       -83.0736   28.8469  -72.3712 H         1 UNK         0.0837 
     73 H73       -82.3310   28.0280  -71.0271 H         1 UNK         0.0837 
     74 H74       -80.6801   30.6884  -69.0339 H         1 UNK         0.0685 
     75 H75       -81.2368   29.0440  -69.1834 H         1 UNK         0.0685 
     76 H76       -79.6626   27.2855  -69.8599 H         1 UNK         0.1434 
     77 H77       -75.5837   28.3279  -70.6777 H         1 UNK         0.1329 
     78 H78       -78.5109   31.4101  -70.1293 H         1 UNK         0.1335 
     79 H79       -74.8739   30.6454  -70.3830 H         1 UNK         0.0680 
     80 H80       -76.0325   31.8744  -69.9610 H         1 UNK         0.0680 
     81 H81       -75.6819   30.2898  -74.2712 H         1 UNK         0.1032 
     82 H82       -75.4709   29.3054  -72.8656 H         1 UNK         0.1032 
     83 H83       -73.3967   31.4250  -73.5828 H         1 UNK         0.0461 
     84 H84       -72.0727   31.5577  -71.7729 H         1 UNK         0.3453 
     85 H85       -71.6246   30.1964  -70.7779 H         1 UNK         0.3453 
     86 H86       -73.7421   28.8829  -75.0141 H         1 UNK         0.2984 
     87 H87       -72.6626   29.4358  -77.4173 H         1 UNK         0.0554 
     88 H88       -70.3641   29.0087  -78.3012 H         1 UNK         0.0847 
     89 H89       -69.6714   29.4873  -76.7520 H         1 UNK         0.0847 
     90 H90       -70.5443   30.6581  -77.7270 H         1 UNK         0.0847 
     91 H91       -72.6484   27.3000  -76.9223 H         1 UNK         0.3141 
     92 H92       -70.4978   25.0483  -75.5812 H         1 UNK         0.0743 
     93 H93       -72.8773   25.8128  -73.8045 H         1 UNK         0.0784 
     94 H94       -72.1170   24.2219  -73.8660 H         1 UNK         0.0784 
     95 H95       -71.2191   25.6069  -73.2665 H         1 UNK         0.0784 
     96 H96       -73.3242   24.8126  -76.0421 H         1 UNK         0.3213 
     97 H97       -73.1389   24.7912  -79.6139 H         1 UNK         0.0855 
     98 H98       -73.8543   22.6040  -77.5880 H         1 UNK         0.0814 
     99 H99       -72.6942   22.4413  -78.8983 H         1 UNK         0.0814 
    100 H100      -74.3954   22.6807  -79.2634 H         1 UNK         0.0814 
    101 H101      -75.3883   24.5892  -77.9106 H         1 UNK         0.3105 
    102 H102      -75.9815   28.1291  -77.5149 H         1 UNK         0.0547 
    103 H103      -77.0354   27.3784  -79.6350 H         1 UNK         0.0837 
    104 H104      -77.4469   25.8293  -78.9155 H         1 UNK         0.0837 
    105 H105      -78.1900   27.3075  -78.3122 H         1 UNK         0.0837 
    106 H106      -77.3063   25.8659  -76.3954 H         1 UNK         0.3020 
    107 H107      -75.3638   25.6036  -73.4183 H         1 UNK         0.1245 
    108 H108      -78.1753   26.6811  -73.9462 H         1 UNK         0.0781 
    109 H109      -76.9789   27.3890  -72.9119 H         1 UNK         0.0781 
    110 H110      -76.1545   26.0373  -70.5018 H         1 UNK         0.0836 
    111 H111      -77.5635   25.6360  -69.5512 H         1 UNK         0.0836 
    112 H112      -77.6048   24.1638  -74.4769 H         1 UNK         0.3022 
    113 H113      -75.6903   21.6500  -76.1576 H         1 UNK         0.0747 
    114 H114      -76.9689   20.2054  -74.5956 H         1 UNK         0.0793 
    115 H115      -75.6671   21.0151  -73.7407 H         1 UNK         0.0793 
    116 H116      -77.3190   21.5876  -73.5564 H         1 UNK         0.0793 
    117 H117      -78.4989   21.9765  -75.7194 H         1 UNK         0.3047 
    118 H118      -79.1885   24.0048  -78.5633 H         1 UNK         0.0822 
    119 H119      -80.6980   22.1157  -79.1031 H         1 UNK         0.0807 
    120 H120      -79.8104   21.0508  -78.0122 H         1 UNK         0.0807 
    121 H121      -79.0377   21.6752  -79.4627 H         1 UNK         0.0807 
    122 H122      -80.9424   22.8519  -76.6675 H         1 UNK         0.2946 
    123 H123      -82.0879   24.6480  -75.2922 H         1 UNK         0.1144 
    124 H124      -79.8815   23.5697  -73.4114 H         1 UNK         0.0793 
    125 H125      -81.0391   22.5767  -74.2849 H         1 UNK         0.0793 
    126 H126      -81.5934   23.6382  -73.0116 H         1 UNK         0.0793 
    127 H127      -80.0839   26.4904  -74.6463 H         1 UNK         0.2896 
@<TRIPOS>BOND
     1    1    2 1    
     2    1   67 1    
     3    1   68 1    
     4    1   69 1    
     5    2    3 2    
     6    2    4 am   BACKBONE|DICT|INTERRES
     7    4    5 1    
     8    4   70 1    
     9    5    6 1    
    10    5   65 1    
    11    5   71 1    
    12    6    7 1    
    13    6   72 1    
    14    6   73 1    
    15    7    8 1    
    16    8    9 1    
    17    8   74 1    
    18    8   75 1    
    19    9   10 ar   
    20    9   14 ar   
    21   10   11 ar   
    22   10   76 1    
    23   11   12 ar   
    24   11   48 1    
    25   12   13 ar   
    26   12   77 1    
    27   13   14 ar   
    28   13   15 1    
    29   14   78 1    
    30   15   16 1    
    31   15   79 1    
    32   15   80 1    
    33   16   17 1    
    34   17   18 1    
    35   17   81 1    
    36   17   82 1    
    37   18   19 1    
    38   18   22 1    
    39   18   83 1    
    40   19   20 am   BACKBONE|DICT|INTERRES
    41   19   21 2    
    42   20   84 1    
    43   20   85 1    
    44   22   23 am   BACKBONE|DICT|INTERRES
    45   22   86 1    
    46   23   24 2    
    47   23   25 1    
    48   25   26 1    
    49   25   27 1    
    50   25   87 1    
    51   26   88 1    
    52   26   89 1    
    53   26   90 1    
    54   27   28 am   BACKBONE|DICT|INTERRES
    55   27   91 1    
    56   28   29 2    
    57   28   30 1    
    58   30   31 1    
    59   30   32 1    
    60   30   92 1    
    61   31   93 1    
    62   31   94 1    
    63   31   95 1    
    64   32   33 am   BACKBONE|DICT|INTERRES
    65   32   96 1    
    66   33   34 2    
    67   33   35 1    
    68   35   36 1    
    69   35   37 1    
    70   35   97 1    
    71   36   98 1    
    72   36   99 1    
    73   36  100 1    
    74   37   38 am   BACKBONE|DICT|INTERRES
    75   37  101 1    
    76   38   39 2    
    77   38   40 1    
    78   40   41 1    
    79   40   42 1    
    80   40  102 1    
    81   41  103 1    
    82   41  104 1    
    83   41  105 1    
    84   42   43 am   BACKBONE|DICT|INTERRES
    85   42  106 1    
    86   43   44 2    
    87   43   45 1    
    88   45   46 1    
    89   45   49 1    
    90   45  107 1    
    91   46   47 1    
    92   46  108 1    
    93   46  109 1    
    94   47   48 1    
    95   48  110 1    
    96   48  111 1    
    97   49   50 am   BACKBONE|DICT|INTERRES
    98   49  112 1    
    99   50   51 2    
   100   50   52 1    
   101   52   53 1    
   102   52   54 1    
   103   52  113 1    
   104   53  114 1    
   105   53  115 1    
   106   53  116 1    
   107   54   55 am   BACKBONE|DICT|INTERRES
   108   54  117 1    
   109   55   56 2    
   110   55   57 1    
   111   57   58 1    
   112   57   59 1    
   113   57  118 1    
   114   58  119 1    
   115   58  120 1    
   116   58  121 1    
   117   59   60 am   BACKBONE|DICT|INTERRES
   118   59  122 1    
   119   60   61 2    
   120   60   62 1    
   121   62   63 1    
   122   62   64 1    
   123   62  123 1    
   124   63  124 1    
   125   63  125 1    
   126   63  126 1    
   127   64   65 am   BACKBONE|DICT|INTERRES
   128   64  127 1    
   129   65   66 2    
@<TRIPOS>SUBSTRUCTURE
     1 UNK         1 GROUP             0       ****    0 ROOT    
