@<TRIPOS>MOLECULE
3R135
127   129    1
SMALL
USER_CHARGES


@<TRIPOS>ATOM
      1 CA        -80.9883   22.8234  -70.9189 C.3       0 UNK        -0.1998 
      2 C         -80.7571   23.8841  -71.9833 C.2       0 UNK         0.4909 
      3 O         -79.9093   23.6912  -72.8545 O.2       0 UNK        -0.5240 
      4 N         -81.5209   24.9855  -71.9278 N.am      1 UNK        -0.4739 
      5 CA        -81.4450   26.1800  -72.7884 C.3       1 UNK         0.0864 
      6 C6        -80.2719   27.1318  -72.4305 C.3       11 UNK        -0.0881 
      7 S7        -80.1660   27.5879  -70.6668 S.3       11 UNK        -0.2682 
      8 C8        -79.7665   29.3667  -70.7646 C.3       11 UNK         0.0289 
      9 C9        -78.4893   29.6349  -71.5534 C.ar      11 UNK        -0.0687 
     10 C10       -78.5527   30.2467  -72.8113 C.ar      11 UNK        -0.0823 
     11 C11       -77.3897   30.4629  -73.5595 C.ar      11 UNK        -0.0830 
     12 C12       -76.1575   30.0897  -73.0176 C.ar      11 UNK        -0.1021 
     13 C13       -76.0732   29.5076  -71.7507 C.ar      11 UNK        -0.0753 
     14 C14       -77.2448   29.2763  -71.0239 C.ar      11 UNK        -0.0933 
     15 C15       -74.7106   29.1368  -71.1826 C.3       11 UNK         0.0166 
     16 S16       -73.7733   30.6244  -70.7184 S.3       11 UNK        -0.2615 
     17 C17       -72.1235   29.9493  -70.3200 C.3       11 UNK        -0.0865 
     18 CA        -71.1457   30.0298  -71.5332 C.3       10 UNK         0.0862 
     19 C         -69.6422   30.1415  -71.1255 C.2       10 UNK         0.5551 
     20 N         -68.7051   29.6903  -71.9506 N.am      10 UNK        -0.7319 
     21 O         -69.3119   30.6760  -70.0696 O.2       10 UNK        -0.5018 
     22 N         -71.4415   29.0001  -72.5472 N.am      10 UNK        -0.4509 
     23 C         -71.2448   27.6817  -72.4282 C.2       10 UNK         0.4899 
     24 O         -70.7180   27.1658  -71.4419 O.2       10 UNK        -0.4839 
     25 CA        -71.7073   26.7482  -73.5684 C.3       9 UNK         0.0222 
     26 CB        -72.9555   25.9615  -73.1317 C.3       9 UNK        -0.1966 
     27 N         -71.9190   27.3078  -74.9154 N.am      9 UNK        -0.4218 
     28 C         -72.6866   28.3242  -75.3363 C.2       9 UNK         0.5020 
     29 O         -73.2370   29.1366  -74.5961 O.2       9 UNK        -0.5274 
     30 CA        -72.8900   28.4584  -76.8552 C.3       8 UNK         0.0270 
     31 CB        -71.6180   28.9571  -77.5691 C.3       8 UNK        -0.1976 
     32 N         -73.4416   27.2431  -77.4693 N.am      8 UNK        -0.4313 
     33 C         -72.8680   26.0407  -77.6256 C.2       8 UNK         0.5041 
     34 O         -71.6920   25.8113  -77.3353 O.2       8 UNK        -0.5577 
     35 CA        -73.7449   24.8806  -78.1440 C.3       7 UNK         0.0284 
     36 CB        -73.7104   23.6987  -77.1593 C.3       7 UNK        -0.1958 
     37 N         -75.1445   25.2529  -78.3703 N.am      7 UNK        -0.4454 
     38 C         -75.6156   25.8823  -79.4549 C.2       7 UNK         0.5089 
     39 O         -74.9259   26.1754  -80.4313 O.2       7 UNK        -0.5125 
     40 CA        -77.0977   26.2986  -79.4188 C.3       6 UNK         0.0408 
     41 CB        -78.0003   25.1595  -79.9182 C.3       6 UNK        -0.1791 
     42 N         -77.5294   26.7200  -78.0821 N.am      6 UNK        -0.4762 
     43 C         -77.0982   27.8272  -77.4567 C.2       6 UNK         0.5007 
     44 O         -76.3215   28.6360  -77.9649 O.2       6 UNK        -0.5032 
     45 CA        -77.5507   28.0242  -75.9969 C.3       5 UNK         0.0783 
     46 C46       -78.8871   28.7985  -75.8947 C.3       11 UNK        -0.0857 
     47 S47       -78.7956   30.6175  -76.0326 S.3       11 UNK        -0.2512 
     48 C48       -77.4188   31.1244  -74.9381 C.3       11 UNK         0.0225 
     49 N         -77.6073   26.7496  -75.2713 N.am      5 UNK        -0.4615 
     50 C         -76.5081   26.0685  -74.9191 C.2       4 UNK         0.5053 
     51 O         -75.3713   26.4500  -75.1781 O.2       4 UNK        -0.5105 
     52 CA        -76.6808   24.7175  -74.2132 C.3       4 UNK         0.0263 
     53 CB        -76.7258   24.8762  -72.6850 C.3       4 UNK        -0.1981 
     54 N         -77.8373   23.9535  -74.6790 N.am      4 UNK        -0.4224 
     55 C         -77.9450   23.4292  -75.9078 C.2       3 UNK         0.4895 
     56 O         -77.1348   23.6365  -76.8115 O.2       3 UNK        -0.5091 
     57 CA        -79.1512   22.5205  -76.1705 C.3       3 UNK         0.0250 
     58 CB        -79.0213   21.2015  -75.3899 C.3       3 UNK        -0.1996 
     59 N         -80.3970   23.1863  -75.7962 N.am      3 UNK        -0.4254 
     60 C         -81.2442   23.7552  -76.6646 C.2       2 UNK         0.5004 
     61 O         -81.0831   23.7465  -77.8858 O.2       2 UNK        -0.5226 
     62 CA        -82.4906   24.4550  -76.0863 C.3       2 UNK         0.0269 
     63 CB        -83.7138   23.5283  -76.1770 C.3       2 UNK        -0.1926 
     64 N         -82.3466   24.9227  -74.7025 N.am      2 UNK        -0.4687 
     65 C         -81.4567   25.8397  -74.2978 C.2       1 UNK         0.5165 
     66 O         -80.6387   26.3614  -75.0575 O.2       1 UNK        -0.5079 
     67 H67       -81.2802   21.8830  -71.3853 H         1 UNK         0.0900 
     68 H68       -80.0705   22.6547  -70.3566 H         1 UNK         0.0900 
     69 H69       -81.7693   23.1122  -70.2159 H         1 UNK         0.0900 
     70 H70       -82.2022   25.0535  -71.1843 H         1 UNK         0.2959 
     71 H71       -82.3689   26.7329  -72.6110 H         1 UNK         0.1079 
     72 H72       -79.3164   26.7048  -72.7287 H         1 UNK         0.0837 
     73 H73       -80.3832   28.0511  -73.0048 H         1 UNK         0.0837 
     74 H74       -80.6126   29.8971  -71.2041 H         1 UNK         0.0685 
     75 H75       -79.6530   29.7588  -69.7531 H         1 UNK         0.0685 
     76 H76       -79.5106   30.5421  -73.2161 H         1 UNK         0.1434 
     77 H77       -75.2489   30.2686  -73.5750 H         1 UNK         0.1329 
     78 H78       -77.1928   28.8148  -70.0474 H         1 UNK         0.1335 
     79 H79       -74.1537   28.5818  -71.9343 H         1 UNK         0.0680 
     80 H80       -74.8117   28.4826  -70.3169 H         1 UNK         0.0680 
     81 H81       -71.7582   30.5406  -69.4795 H         1 UNK         0.1032 
     82 H82       -72.2084   28.9296  -69.9427 H         1 UNK         0.1032 
     83 H83       -71.3339   30.9794  -72.0353 H         1 UNK         0.0461 
     84 H84       -67.7345   29.7733  -71.6932 H         1 UNK         0.3453 
     85 H85       -68.9638   29.2587  -72.8230 H         1 UNK         0.3453 
     86 H86       -71.9691   29.3112  -73.3604 H         1 UNK         0.2984 
     87 H87       -70.9006   26.0247  -73.6933 H         1 UNK         0.0554 
     88 H88       -72.8067   25.4793  -72.1655 H         1 UNK         0.0847 
     89 H89       -73.2011   25.1791  -73.8490 H         1 UNK         0.0847 
     90 H90       -73.8243   26.6110  -73.0429 H         1 UNK         0.0847 
     91 H91       -71.5454   26.7342  -75.6693 H         1 UNK         0.3141 
     92 H92       -73.6575   29.2208  -76.9982 H         1 UNK         0.0743 
     93 H93       -71.2977   29.9164  -77.1604 H         1 UNK         0.0784 
     94 H94       -70.7818   28.2665  -77.4604 H         1 UNK         0.0784 
     95 H95       -71.7953   29.1021  -78.6346 H         1 UNK         0.0784 
     96 H96       -74.4281   27.3030  -77.6864 H         1 UNK         0.3213 
     97 H97       -73.3130   24.5489  -79.0904 H         1 UNK         0.0855 
     98 H98       -74.0837   23.9873  -76.1766 H         1 UNK         0.0814 
     99 H99       -72.6938   23.3265  -77.0255 H         1 UNK         0.0814 
    100 H100      -74.3154   22.8648  -77.5157 H         1 UNK         0.0814 
    101 H101      -75.8035   24.9950  -77.6422 H         1 UNK         0.3105 
    102 H102      -77.2209   27.1481  -80.0941 H         1 UNK         0.0547 
    103 H103      -79.0467   25.4638  -79.9465 H         1 UNK         0.0837 
    104 H104      -77.7232   24.8593  -80.9295 H         1 UNK         0.0837 
    105 H105      -77.9283   24.2741  -79.2860 H         1 UNK         0.0837 
    106 H106      -78.1332   26.0864  -77.5772 H         1 UNK         0.3020 
    107 H107      -76.7663   28.6074  -75.5145 H         1 UNK         0.1245 
    108 H108      -79.3396   28.6073  -74.9246 H         1 UNK         0.0781 
    109 H109      -79.6121   28.4284  -76.6222 H         1 UNK         0.0781 
    110 H110      -77.4746   32.2042  -74.7972 H         1 UNK         0.0836 
    111 H111      -76.4824   30.9426  -75.4681 H         1 UNK         0.0836 
    112 H112      -78.5284   26.3794  -75.0650 H         1 UNK         0.3022 
    113 H113      -75.7924   24.1274  -74.4467 H         1 UNK         0.0747 
    114 H114      -76.6665   23.9075  -72.1891 H         1 UNK         0.0793 
    115 H115      -75.8883   25.4750  -72.3258 H         1 UNK         0.0793 
    116 H116      -77.6387   25.3609  -72.3473 H         1 UNK         0.0793 
    117 H117      -78.5726   23.7758  -73.9942 H         1 UNK         0.3047 
    118 H118      -79.1545   22.2767  -77.2353 H         1 UNK         0.0822 
    119 H119      -78.0869   20.6940  -75.6337 H         1 UNK         0.0807 
    120 H120      -79.8339   20.5180  -75.6358 H         1 UNK         0.0807 
    121 H121      -79.0357   21.3607  -74.3107 H         1 UNK         0.0807 
    122 H122      -80.5729   23.2947  -74.8036 H         1 UNK         0.2946 
    123 H123      -82.6767   25.3315  -76.7113 H         1 UNK         0.1144 
    124 H124      -84.6254   24.0409  -75.8695 H         1 UNK         0.0793 
    125 H125      -83.5965   22.6434  -75.5503 H         1 UNK         0.0793 
    126 H126      -83.8685   23.1846  -77.2009 H         1 UNK         0.0793 
    127 H127      -82.9606   24.5121  -74.0132 H         1 UNK         0.2896 
@<TRIPOS>BOND
     1    1    2 1    
     2    1   67 1    
     3    1   68 1    
     4    1   69 1    
     5    2    3 2    
     6    2    4 am   BACKBONE|DICT|INTERRES
     7    4    5 1    
     8    4   70 1    
     9    5    6 1    
    10    5   65 1    
    11    5   71 1    
    12    6    7 1    
    13    6   72 1    
    14    6   73 1    
    15    7    8 1    
    16    8    9 1    
    17    8   74 1    
    18    8   75 1    
    19    9   10 ar   
    20    9   14 ar   
    21   10   11 ar   
    22   10   76 1    
    23   11   12 ar   
    24   11   48 1    
    25   12   13 ar   
    26   12   77 1    
    27   13   14 ar   
    28   13   15 1    
    29   14   78 1    
    30   15   16 1    
    31   15   79 1    
    32   15   80 1    
    33   16   17 1    
    34   17   18 1    
    35   17   81 1    
    36   17   82 1    
    37   18   19 1    
    38   18   22 1    
    39   18   83 1    
    40   19   20 am   BACKBONE|DICT|INTERRES
    41   19   21 2    
    42   20   84 1    
    43   20   85 1    
    44   22   23 am   BACKBONE|DICT|INTERRES
    45   22   86 1    
    46   23   24 2    
    47   23   25 1    
    48   25   26 1    
    49   25   27 1    
    50   25   87 1    
    51   26   88 1    
    52   26   89 1    
    53   26   90 1    
    54   27   28 am   BACKBONE|DICT|INTERRES
    55   27   91 1    
    56   28   29 2    
    57   28   30 1    
    58   30   31 1    
    59   30   32 1    
    60   30   92 1    
    61   31   93 1    
    62   31   94 1    
    63   31   95 1    
    64   32   33 am   BACKBONE|DICT|INTERRES
    65   32   96 1    
    66   33   34 2    
    67   33   35 1    
    68   35   36 1    
    69   35   37 1    
    70   35   97 1    
    71   36   98 1    
    72   36   99 1    
    73   36  100 1    
    74   37   38 am   BACKBONE|DICT|INTERRES
    75   37  101 1    
    76   38   39 2    
    77   38   40 1    
    78   40   41 1    
    79   40   42 1    
    80   40  102 1    
    81   41  103 1    
    82   41  104 1    
    83   41  105 1    
    84   42   43 am   BACKBONE|DICT|INTERRES
    85   42  106 1    
    86   43   44 2    
    87   43   45 1    
    88   45   46 1    
    89   45   49 1    
    90   45  107 1    
    91   46   47 1    
    92   46  108 1    
    93   46  109 1    
    94   47   48 1    
    95   48  110 1    
    96   48  111 1    
    97   49   50 am   BACKBONE|DICT|INTERRES
    98   49  112 1    
    99   50   51 2    
   100   50   52 1    
   101   52   53 1    
   102   52   54 1    
   103   52  113 1    
   104   53  114 1    
   105   53  115 1    
   106   53  116 1    
   107   54   55 am   BACKBONE|DICT|INTERRES
   108   54  117 1    
   109   55   56 2    
   110   55   57 1    
   111   57   58 1    
   112   57   59 1    
   113   57  118 1    
   114   58  119 1    
   115   58  120 1    
   116   58  121 1    
   117   59   60 am   BACKBONE|DICT|INTERRES
   118   59  122 1    
   119   60   61 2    
   120   60   62 1    
   121   62   63 1    
   122   62   64 1    
   123   62  123 1    
   124   63  124 1    
   125   63  125 1    
   126   63  126 1    
   127   64   65 am   BACKBONE|DICT|INTERRES
   128   64  127 1    
   129   65   66 2    
@<TRIPOS>SUBSTRUCTURE
     1 UNK         1 GROUP             0       ****    0 ROOT    
