@<TRIPOS>MOLECULE
3R135
127   129    1
SMALL
USER_CHARGES


@<TRIPOS>ATOM
      1 CA        -84.5848   24.3902  -70.9026 C.3       0 UNK        -0.1998 
      2 C         -84.2706   25.5822  -71.7940 C.2       0 UNK         0.4909 
      3 O         -85.1437   26.0433  -72.5297 O.2       0 UNK        -0.5240 
      4 N         -83.0297   26.0851  -71.7333 N.am      1 UNK        -0.4739 
      5 CA        -82.5437   27.2148  -72.5398 C.3       1 UNK         0.0864 
      6 C6        -81.2518   27.8175  -71.9315 C.3       11 UNK        -0.0881 
      7 S7        -81.1483   29.6251  -72.1493 S.3       11 UNK        -0.2682 
      8 C8        -79.9097   30.0596  -70.8859 C.3       11 UNK         0.0289 
      9 C9        -78.5359   29.5206  -71.2535 C.ar      11 UNK        -0.0687 
     10 C10       -78.1098   28.2825  -70.7664 C.ar      11 UNK        -0.0823 
     11 C11       -76.8782   27.7513  -71.1592 C.ar      11 UNK        -0.0830 
     12 C12       -76.0538   28.4916  -72.0130 C.ar      11 UNK        -0.1021 
     13 C13       -76.4472   29.7548  -72.4746 C.ar      11 UNK        -0.0753 
     14 C14       -77.6981   30.2533  -72.0980 C.ar      11 UNK        -0.0933 
     15 C15       -75.5713   30.5946  -73.4039 C.3       11 UNK         0.0166 
     16 S16       -73.7754   30.3443  -73.1894 S.3       11 UNK        -0.2615 
     17 C17       -73.1286   31.5731  -74.3722 C.3       11 UNK        -0.0865 
     18 CA        -72.8178   30.9585  -75.7683 C.3       10 UNK         0.0862 
     19 C         -72.5723   32.0406  -76.8658 C.2       10 UNK         0.5551 
     20 N         -71.7654   31.7736  -77.8860 N.am      10 UNK        -0.7319 
     21 O         -73.1439   33.1272  -76.8152 O.2       10 UNK        -0.5018 
     22 N         -71.8028   29.8864  -75.7294 N.am      10 UNK        -0.4509 
     23 C         -70.5132   30.0342  -75.3912 C.2       10 UNK         0.4899 
     24 O         -70.0304   31.0976  -74.9974 O.2       10 UNK        -0.4839 
     25 CA        -69.5932   28.8078  -75.5719 C.3       9 UNK         0.0222 
     26 CB        -68.2409   28.9602  -74.8417 C.3       9 UNK        -0.1966 
     27 N         -70.2163   27.5224  -75.2374 N.am      9 UNK        -0.4218 
     28 C         -70.6981   27.1197  -74.0532 C.2       9 UNK         0.5020 
     29 O         -70.7229   27.8271  -73.0447 O.2       9 UNK        -0.5274 
     30 CA        -71.2186   25.6657  -73.9916 C.3       8 UNK         0.0270 
     31 CB        -71.7998   25.3036  -72.6116 C.3       8 UNK        -0.1976 
     32 N         -72.2218   25.3877  -75.0252 N.am      8 UNK        -0.4313 
     33 C         -71.9604   25.1852  -76.3269 C.2       8 UNK         0.5041 
     34 O         -70.8161   25.1508  -76.7826 O.2       8 UNK        -0.5577 
     35 CA        -73.1502   25.0595  -77.3006 C.3       7 UNK         0.0284 
     36 CB        -73.4560   23.5809  -77.5859 C.3       7 UNK        -0.1958 
     37 N         -74.3713   25.7213  -76.8382 N.am      7 UNK        -0.4454 
     38 C         -74.4823   27.0149  -76.5090 C.2       7 UNK         0.5089 
     39 O         -73.5898   27.8417  -76.6950 O.2       7 UNK        -0.5125 
     40 CA        -75.7771   27.4486  -75.7966 C.3       6 UNK         0.0408 
     41 CB        -76.7132   28.1785  -76.7693 C.3       6 UNK        -0.1791 
     42 N         -76.5053   26.3596  -75.1297 N.am      6 UNK        -0.4762 
     43 C         -76.0141   25.5943  -74.1401 C.2       6 UNK         0.5007 
     44 O         -74.8613   25.6794  -73.7186 O.2       6 UNK        -0.5032 
     45 CA        -76.9566   24.5212  -73.5689 C.3       5 UNK         0.0783 
     46 C46       -78.0545   25.1477  -72.6677 C.3       11 UNK        -0.0857 
     47 S47       -77.6634   25.0614  -70.8881 S.3       11 UNK        -0.2512 
     48 C48       -76.4243   26.3850  -70.6572 C.3       11 UNK         0.0225 
     49 N         -77.5221   23.7430  -74.6714 N.am      5 UNK        -0.4615 
     50 C         -76.8736   22.7593  -75.3117 C.2       4 UNK         0.5053 
     51 O         -75.7836   22.3162  -74.9519 O.2       4 UNK        -0.5105 
     52 CA        -77.5335   22.1770  -76.5767 C.3       4 UNK         0.0263 
     53 CB        -78.3102   20.8956  -76.2342 C.3       4 UNK        -0.1981 
     54 N         -78.4310   23.1169  -77.2530 N.am      4 UNK        -0.4224 
     55 C         -78.0497   24.2670  -77.8283 C.2       3 UNK         0.4895 
     56 O         -76.8765   24.6197  -77.9364 O.2       3 UNK        -0.5091 
     57 CA        -79.1687   25.2099  -78.3104 C.3       3 UNK         0.0250 
     58 CB        -79.4548   24.9833  -79.8030 C.3       3 UNK        -0.1996 
     59 N         -80.4181   25.0897  -77.5475 N.am      3 UNK        -0.4254 
     60 C         -80.5396   25.2955  -76.2278 C.2       2 UNK         0.5004 
     61 O         -79.6002   25.6247  -75.4972 O.2       2 UNK        -0.5226 
     62 CA        -81.9185   24.9790  -75.6270 C.3       2 UNK         0.0269 
     63 CB        -82.1160   23.4559  -75.5267 C.3       2 UNK        -0.1926 
     64 N         -82.0928   25.5505  -74.2922 N.am      2 UNK        -0.4687 
     65 C         -82.3537   26.8385  -74.0287 C.2       1 UNK         0.5165 
     66 O         -82.4812   27.6991  -74.9013 O.2       1 UNK        -0.5079 
     67 H67       -84.8859   23.5370  -71.5099 H         1 UNK         0.0900 
     68 H68       -85.4040   24.6333  -70.2264 H         1 UNK         0.0900 
     69 H69       -83.7262   24.0922  -70.3011 H         1 UNK         0.0900 
     70 H70       -82.3583   25.6689  -71.1033 H         1 UNK         0.2959 
     71 H71       -83.3274   27.9759  -72.5098 H         1 UNK         0.1079 
     72 H72       -80.3550   27.3484  -72.3407 H         1 UNK         0.0837 
     73 H73       -81.2217   27.6270  -70.8574 H         1 UNK         0.0837 
     74 H74       -79.8672   31.1457  -70.7916 H         1 UNK         0.0685 
     75 H75       -80.2256   29.6818  -69.9122 H         1 UNK         0.0685 
     76 H76       -78.7506   27.7150  -70.1057 H         1 UNK         0.1434 
     77 H77       -75.1021   28.0787  -72.3182 H         1 UNK         0.1329 
     78 H78       -78.0290   31.2130  -72.4714 H         1 UNK         0.1335 
     79 H79       -75.7852   31.6519  -73.2393 H         1 UNK         0.0680 
     80 H80       -75.8447   30.3813  -74.4375 H         1 UNK         0.0680 
     81 H81       -72.2353   32.0298  -73.9449 H         1 UNK         0.1032 
     82 H82       -73.8549   32.3832  -74.4558 H         1 UNK         0.1032 
     83 H83       -73.7325   30.4659  -76.0986 H         1 UNK         0.0461 
     84 H84       -71.3075   30.8791  -77.9523 H         1 UNK         0.3453 
     85 H85       -71.6191   32.4723  -78.5975 H         1 UNK         0.3453 
     86 H86       -72.1393   28.9819  -76.0467 H         1 UNK         0.2984 
     87 H87       -69.3779   28.7590  -76.6401 H         1 UNK         0.0554 
     88 H88       -67.7008   29.8400  -75.1938 H         1 UNK         0.0847 
     89 H89       -68.3739   29.0707  -73.7650 H         1 UNK         0.0847 
     90 H90       -67.5963   28.0983  -75.0137 H         1 UNK         0.0847 
     91 H91       -70.2660   26.8411  -75.9917 H         1 UNK         0.3141 
     92 H92       -70.3598   25.0135  -74.1640 H         1 UNK         0.0743 
     93 H93       -71.0401   25.3905  -71.8338 H         1 UNK         0.0784 
     94 H94       -72.6232   25.9633  -72.3352 H         1 UNK         0.0784 
     95 H95       -72.1697   24.2784  -72.5905 H         1 UNK         0.0784 
     96 H96       -73.1918   25.4506  -74.7251 H         1 UNK         0.3213 
     97 H97       -72.8565   25.5386  -78.2367 H         1 UNK         0.0855 
     98 H98       -72.5766   23.0692  -77.9793 H         1 UNK         0.0814 
     99 H99       -74.2507   23.4740  -78.3248 H         1 UNK         0.0814 
    100 H100      -73.7640   23.0527  -76.6828 H         1 UNK         0.0814 
    101 H101      -75.2019   25.1463  -76.7565 H         1 UNK         0.3105 
    102 H102      -75.4817   28.1501  -75.0162 H         1 UNK         0.0547 
    103 H103      -76.2283   29.0651  -77.1801 H         1 UNK         0.0837 
    104 H104      -76.9891   27.5433  -77.6104 H         1 UNK         0.0837 
    105 H105      -77.6274   28.5084  -76.2753 H         1 UNK         0.0837 
    106 H106      -77.4671   26.2114  -75.4136 H         1 UNK         0.3020 
    107 H107      -76.3493   23.8441  -72.9628 H         1 UNK         0.1245 
    108 H108      -78.9905   24.5998  -72.7889 H         1 UNK         0.0781 
    109 H109      -78.2977   26.1737  -72.9507 H         1 UNK         0.0781 
    110 H110      -75.4940   26.0823  -71.1394 H         1 UNK         0.0836 
    111 H111      -76.1973   26.4650  -69.5934 H         1 UNK         0.0836 
    112 H112      -78.3926   24.0957  -75.0532 H         1 UNK         0.3022 
    113 H113      -76.7327   21.9196  -77.2734 H         1 UNK         0.0747 
    114 H114      -78.7158   20.4251  -77.1301 H         1 UNK         0.0793 
    115 H115      -77.6608   20.1633  -75.7523 H         1 UNK         0.0793 
    116 H116      -79.1387   21.0943  -75.5529 H         1 UNK         0.0793 
    117 H117      -79.4168   22.9032  -77.2257 H         1 UNK         0.3047 
    118 H118      -78.8109   26.2325  -78.1843 H         1 UNK         0.0822 
    119 H119      -80.1751   25.7074  -80.1843 H         1 UNK         0.0807 
    120 H120      -79.8484   23.9839  -79.9932 H         1 UNK         0.0807 
    121 H121      -78.5449   25.0931  -80.3952 H         1 UNK         0.0807 
    122 H122      -81.2352   24.8090  -78.0712 H         1 UNK         0.2946 
    123 H123      -82.6846   25.3962  -76.2850 H         1 UNK         0.1144 
    124 H124      -83.0934   23.2108  -75.1102 H         1 UNK         0.0793 
    125 H125      -81.3578   22.9902  -74.8952 H         1 UNK         0.0793 
    126 H126      -82.0613   22.9811  -76.5071 H         1 UNK         0.0793 
    127 H127      -81.9912   24.9196  -73.5116 H         1 UNK         0.2896 
@<TRIPOS>BOND
     1    1    2 1    
     2    1   67 1    
     3    1   68 1    
     4    1   69 1    
     5    2    3 2    
     6    2    4 am   BACKBONE|DICT|INTERRES
     7    4    5 1    
     8    4   70 1    
     9    5    6 1    
    10    5   65 1    
    11    5   71 1    
    12    6    7 1    
    13    6   72 1    
    14    6   73 1    
    15    7    8 1    
    16    8    9 1    
    17    8   74 1    
    18    8   75 1    
    19    9   10 ar   
    20    9   14 ar   
    21   10   11 ar   
    22   10   76 1    
    23   11   12 ar   
    24   11   48 1    
    25   12   13 ar   
    26   12   77 1    
    27   13   14 ar   
    28   13   15 1    
    29   14   78 1    
    30   15   16 1    
    31   15   79 1    
    32   15   80 1    
    33   16   17 1    
    34   17   18 1    
    35   17   81 1    
    36   17   82 1    
    37   18   19 1    
    38   18   22 1    
    39   18   83 1    
    40   19   20 am   BACKBONE|DICT|INTERRES
    41   19   21 2    
    42   20   84 1    
    43   20   85 1    
    44   22   23 am   BACKBONE|DICT|INTERRES
    45   22   86 1    
    46   23   24 2    
    47   23   25 1    
    48   25   26 1    
    49   25   27 1    
    50   25   87 1    
    51   26   88 1    
    52   26   89 1    
    53   26   90 1    
    54   27   28 am   BACKBONE|DICT|INTERRES
    55   27   91 1    
    56   28   29 2    
    57   28   30 1    
    58   30   31 1    
    59   30   32 1    
    60   30   92 1    
    61   31   93 1    
    62   31   94 1    
    63   31   95 1    
    64   32   33 am   BACKBONE|DICT|INTERRES
    65   32   96 1    
    66   33   34 2    
    67   33   35 1    
    68   35   36 1    
    69   35   37 1    
    70   35   97 1    
    71   36   98 1    
    72   36   99 1    
    73   36  100 1    
    74   37   38 am   BACKBONE|DICT|INTERRES
    75   37  101 1    
    76   38   39 2    
    77   38   40 1    
    78   40   41 1    
    79   40   42 1    
    80   40  102 1    
    81   41  103 1    
    82   41  104 1    
    83   41  105 1    
    84   42   43 am   BACKBONE|DICT|INTERRES
    85   42  106 1    
    86   43   44 2    
    87   43   45 1    
    88   45   46 1    
    89   45   49 1    
    90   45  107 1    
    91   46   47 1    
    92   46  108 1    
    93   46  109 1    
    94   47   48 1    
    95   48  110 1    
    96   48  111 1    
    97   49   50 am   BACKBONE|DICT|INTERRES
    98   49  112 1    
    99   50   51 2    
   100   50   52 1    
   101   52   53 1    
   102   52   54 1    
   103   52  113 1    
   104   53  114 1    
   105   53  115 1    
   106   53  116 1    
   107   54   55 am   BACKBONE|DICT|INTERRES
   108   54  117 1    
   109   55   56 2    
   110   55   57 1    
   111   57   58 1    
   112   57   59 1    
   113   57  118 1    
   114   58  119 1    
   115   58  120 1    
   116   58  121 1    
   117   59   60 am   BACKBONE|DICT|INTERRES
   118   59  122 1    
   119   60   61 2    
   120   60   62 1    
   121   62   63 1    
   122   62   64 1    
   123   62  123 1    
   124   63  124 1    
   125   63  125 1    
   126   63  126 1    
   127   64   65 am   BACKBONE|DICT|INTERRES
   128   64  127 1    
   129   65   66 2    
@<TRIPOS>SUBSTRUCTURE
     1 UNK         1 GROUP             0       ****    0 ROOT    
