@<TRIPOS>MOLECULE
3R135
127   129    1
SMALL
USER_CHARGES


@<TRIPOS>ATOM
      1 CA        -81.7011   25.0857  -72.0287 C.3       0 UNK        -0.1998 
      2 C         -81.2767   25.5778  -73.4040 C.2       0 UNK         0.4909 
      3 O         -81.6058   24.9484  -74.4115 O.2       0 UNK        -0.5240 
      4 N         -80.5620   26.7094  -73.4409 N.am      1 UNK        -0.4739 
      5 CA        -80.1761   27.4696  -74.6367 C.3       1 UNK         0.0864 
      6 C6        -79.3833   28.7527  -74.2761 C.3       11 UNK        -0.0881 
      7 S7        -80.2270   29.7588  -72.9995 S.3       11 UNK        -0.2682 
      8 C8        -78.8483   30.5459  -72.0941 C.3       11 UNK         0.0289 
      9 C9        -77.7653   29.5673  -71.6537 C.ar      11 UNK        -0.0687 
     10 C10       -78.0868   28.4156  -70.9250 C.ar      11 UNK        -0.0823 
     11 C11       -77.0950   27.4848  -70.5997 C.ar      11 UNK        -0.0830 
     12 C12       -75.7689   27.7375  -70.9583 C.ar      11 UNK        -0.1021 
     13 C13       -75.4367   28.8853  -71.6781 C.ar      11 UNK        -0.0753 
     14 C14       -76.4358   29.7990  -72.0205 C.ar      11 UNK        -0.0933 
     15 C15       -74.0137   29.0853  -72.1620 C.3       11 UNK         0.0166 
     16 S16       -73.0348   30.1532  -71.0759 S.3       11 UNK        -0.2615 
     17 C17       -71.3776   29.8874  -71.7970 C.3       11 UNK        -0.0865 
     18 CA        -70.9412   31.0005  -72.7869 C.3       10 UNK         0.0862 
     19 C         -69.4021   30.9447  -73.0255 C.2       10 UNK         0.5551 
     20 N         -68.9219   30.6388  -74.2251 N.am      10 UNK        -0.7319 
     21 O         -68.6297   31.1922  -72.1027 O.2       10 UNK        -0.5018 
     22 N         -71.7370   30.9987  -74.0316 N.am      10 UNK        -0.4509 
     23 C         -71.8588   32.0710  -74.8315 C.2       10 UNK         0.4899 
     24 O         -71.4140   33.1831  -74.5442 O.2       10 UNK        -0.4839 
     25 CA        -72.5578   31.8994  -76.1956 C.3       9 UNK         0.0222 
     26 CB        -71.5168   31.8675  -77.3271 C.3       9 UNK        -0.1966 
     27 N         -73.3954   30.7047  -76.2910 N.am      9 UNK        -0.4218 
     28 C         -74.5841   30.5524  -75.6960 C.2       9 UNK         0.5020 
     29 O         -75.1498   31.4477  -75.0676 O.2       9 UNK        -0.5274 
     30 CA        -75.2643   29.1725  -75.7995 C.3       8 UNK         0.0270 
     31 CB        -76.4703   29.2445  -76.7496 C.3       8 UNK        -0.1976 
     32 N         -74.4173   28.0424  -76.2071 N.am      8 UNK        -0.4313 
     33 C         -73.2724   27.6174  -75.6543 C.2       8 UNK         0.5041 
     34 O         -72.6408   28.2550  -74.8107 O.2       8 UNK        -0.5577 
     35 CA        -72.7468   26.2484  -76.1332 C.3       7 UNK         0.0284 
     36 CB        -71.5561   25.7518  -75.2922 C.3       7 UNK        -0.1958 
     37 N         -73.7862   25.2117  -76.1348 N.am      7 UNK        -0.4454 
     38 C         -74.7486   25.0646  -77.0523 C.2       7 UNK         0.5089 
     39 O         -74.9083   25.8422  -77.9938 O.2       7 UNK        -0.5125 
     40 CA        -75.7167   23.8853  -76.8791 C.3       6 UNK         0.0408 
     41 CB        -75.0288   22.5351  -77.1586 C.3       6 UNK        -0.1791 
     42 N         -76.4296   23.8837  -75.5970 N.am      6 UNK        -0.4762 
     43 C         -75.9627   23.6525  -74.3606 C.2       6 UNK         0.5007 
     44 O         -74.7747   23.4532  -74.1023 O.2       6 UNK        -0.5032 
     45 CA        -77.0051   23.6206  -73.2232 C.3       5 UNK         0.0783 
     46 C46       -77.0440   24.9749  -72.4743 C.3       11 UNK        -0.0857 
     47 S47       -78.2184   24.9906  -71.0747 S.3       11 UNK        -0.2512 
     48 C48       -77.4536   26.1742  -69.9152 C.3       11 UNK         0.0225 
     49 N         -78.3203   23.1939  -73.7314 N.am      5 UNK        -0.4615 
     50 C         -78.6648   21.9049  -73.8660 C.2       4 UNK         0.5053 
     51 O         -77.9299   20.9737  -73.5345 O.2       4 UNK        -0.5105 
     52 CA        -80.0393   21.5659  -74.4607 C.3       4 UNK         0.0263 
     53 CB        -81.1069   21.4793  -73.3593 C.3       4 UNK        -0.1981 
     54 N         -80.4839   22.4991  -75.5015 N.am      4 UNK        -0.4224 
     55 C         -80.5150   22.1868  -76.8062 C.2       3 UNK         0.4895 
     56 O         -80.0508   21.1478  -77.2780 O.2       3 UNK        -0.5091 
     57 CA        -81.2085   23.1822  -77.7486 C.3       3 UNK         0.0250 
     58 CB        -82.7123   23.2919  -77.4418 C.3       3 UNK        -0.1996 
     59 N         -80.5933   24.5044  -77.6943 N.am      3 UNK        -0.4254 
     60 C         -79.4374   24.8302  -78.2903 C.2       2 UNK         0.5004 
     61 O         -78.7985   24.0593  -79.0062 O.2       2 UNK        -0.5226 
     62 CA        -78.8979   26.2572  -78.0637 C.3       2 UNK         0.0269 
     63 CB        -79.0375   27.1020  -79.3404 C.3       2 UNK        -0.1926 
     64 N         -79.5363   26.9678  -76.9496 N.am      2 UNK        -0.4687 
     65 C         -79.3929   26.6266  -75.6631 C.2       1 UNK         0.5165 
     66 O         -78.6841   25.6892  -75.2918 O.2       1 UNK        -0.5079 
     67 H67       -81.0143   24.3238  -71.6652 H         1 UNK         0.0900 
     68 H68       -82.7006   24.6540  -72.0731 H         1 UNK         0.0900 
     69 H69       -81.7187   25.8979  -71.3023 H         1 UNK         0.0900 
     70 H70       -80.3017   27.1494  -72.5706 H         1 UNK         0.2959 
     71 H71       -81.1117   27.7722  -75.1116 H         1 UNK         0.1079 
     72 H72       -78.3805   28.4844  -73.9411 H         1 UNK         0.0837 
     73 H73       -79.2475   29.3802  -75.1586 H         1 UNK         0.0837 
     74 H74       -78.4262   31.3260  -72.7297 H         1 UNK         0.0685 
     75 H75       -79.2477   31.0502  -71.2134 H         1 UNK         0.0685 
     76 H76       -79.1150   28.2207  -70.6532 H         1 UNK         0.1434 
     77 H77       -74.9987   27.0179  -70.7162 H         1 UNK         0.1329 
     78 H78       -76.1778   30.6764  -72.5985 H         1 UNK         0.1335 
     79 H79       -73.5224   28.1178  -72.2748 H         1 UNK         0.0680 
     80 H80       -74.0329   29.5454  -73.1450 H         1 UNK         0.0680 
     81 H81       -71.3219   28.9088  -72.2773 H         1 UNK         0.1032 
     82 H82       -70.6870   29.8366  -70.9528 H         1 UNK         0.1032 
     83 H83       -71.1194   31.9539  -72.2855 H         1 UNK         0.0461 
     84 H84       -67.9244   30.6104  -74.3666 H         1 UNK         0.3453 
     85 H85       -69.5477   30.4250  -74.9840 H         1 UNK         0.3453 
     86 H86       -72.1075   30.1006  -74.3311 H         1 UNK         0.2984 
     87 H87       -73.1937   32.7742  -76.3467 H         1 UNK         0.0554 
     88 H88       -71.9952   31.8364  -78.3061 H         1 UNK         0.0847 
     89 H89       -70.8569   31.0029  -77.2475 H         1 UNK         0.0847 
     90 H90       -70.8883   32.7591  -77.3060 H         1 UNK         0.0847 
     91 H91       -72.9997   29.9019  -76.7580 H         1 UNK         0.3141 
     92 H92       -75.6419   28.9335  -74.8042 H         1 UNK         0.0743 
     93 H93       -77.1531   30.0450  -76.4611 H         1 UNK         0.0784 
     94 H94       -76.1615   29.4335  -77.7785 H         1 UNK         0.0784 
     95 H95       -77.0378   28.3156  -76.7356 H         1 UNK         0.0784 
     96 H96       -74.7999   27.4390  -76.9306 H         1 UNK         0.3213 
     97 H97       -72.3946   26.3863  -77.1577 H         1 UNK         0.0855 
     98 H98       -70.7328   26.4672  -75.3157 H         1 UNK         0.0814 
     99 H99       -71.1699   24.8050  -75.6697 H         1 UNK         0.0814 
    100 H100      -71.8348   25.6092  -74.2474 H         1 UNK         0.0814 
    101 H101      -73.8028   24.5691  -75.3470 H         1 UNK         0.3105 
    102 H102      -76.4893   24.0060  -77.6381 H         1 UNK         0.0547 
    103 H103      -74.5881   22.5246  -78.1563 H         1 UNK         0.0837 
    104 H104      -74.2274   22.3226  -76.4507 H         1 UNK         0.0837 
    105 H105      -75.7426   21.7127  -77.1123 H         1 UNK         0.0837 
    106 H106      -77.4032   24.1664  -75.6501 H         1 UNK         0.3020 
    107 H107      -76.6510   22.8768  -72.5053 H         1 UNK         0.1245 
    108 H108      -77.3006   25.7963  -73.1444 H         1 UNK         0.0781 
    109 H109      -76.0478   25.1977  -72.0894 H         1 UNK         0.0781 
    110 H110      -76.5690   25.7160  -69.4700 H         1 UNK         0.0836 
    111 H111      -78.1444   26.3657  -69.0930 H         1 UNK         0.0836 
    112 H112      -78.9339   23.9303  -74.0568 H         1 UNK         0.3022 
    113 H113      -79.9486   20.5609  -74.8789 H         1 UNK         0.0747 
    114 H114      -82.0467   21.0919  -73.7531 H         1 UNK         0.0793 
    115 H115      -80.7919   20.8103  -72.5571 H         1 UNK         0.0793 
    116 H116      -81.3103   22.4500  -72.9151 H         1 UNK         0.0793 
    117 H117      -80.8860   23.3824  -75.1925 H         1 UNK         0.3047 
    118 H118      -81.1089   22.7976  -78.7664 H         1 UNK         0.0822 
    119 H119      -83.2197   23.9178  -78.1761 H         1 UNK         0.0807 
    120 H120      -82.9020   23.7159  -76.4553 H         1 UNK         0.0807 
    121 H121      -83.1880   22.3106  -77.4711 H         1 UNK         0.0807 
    122 H122      -81.0388   25.1909  -77.1028 H         1 UNK         0.2946 
    123 H123      -77.8338   26.1588  -77.8372 H         1 UNK         0.1144 
    124 H124      -78.5406   26.6202  -80.1838 H         1 UNK         0.0793 
    125 H125      -78.5809   28.0844  -79.2183 H         1 UNK         0.0793 
    126 H126      -80.0826   27.2466  -79.6171 H         1 UNK         0.0793 
    127 H127      -80.1330   27.7460  -77.1933 H         1 UNK         0.2896 
@<TRIPOS>BOND
     1    1    2 1    
     2    1   67 1    
     3    1   68 1    
     4    1   69 1    
     5    2    3 2    
     6    2    4 am   BACKBONE|DICT|INTERRES
     7    4    5 1    
     8    4   70 1    
     9    5    6 1    
    10    5   65 1    
    11    5   71 1    
    12    6    7 1    
    13    6   72 1    
    14    6   73 1    
    15    7    8 1    
    16    8    9 1    
    17    8   74 1    
    18    8   75 1    
    19    9   10 ar   
    20    9   14 ar   
    21   10   11 ar   
    22   10   76 1    
    23   11   12 ar   
    24   11   48 1    
    25   12   13 ar   
    26   12   77 1    
    27   13   14 ar   
    28   13   15 1    
    29   14   78 1    
    30   15   16 1    
    31   15   79 1    
    32   15   80 1    
    33   16   17 1    
    34   17   18 1    
    35   17   81 1    
    36   17   82 1    
    37   18   19 1    
    38   18   22 1    
    39   18   83 1    
    40   19   20 am   BACKBONE|DICT|INTERRES
    41   19   21 2    
    42   20   84 1    
    43   20   85 1    
    44   22   23 am   BACKBONE|DICT|INTERRES
    45   22   86 1    
    46   23   24 2    
    47   23   25 1    
    48   25   26 1    
    49   25   27 1    
    50   25   87 1    
    51   26   88 1    
    52   26   89 1    
    53   26   90 1    
    54   27   28 am   BACKBONE|DICT|INTERRES
    55   27   91 1    
    56   28   29 2    
    57   28   30 1    
    58   30   31 1    
    59   30   32 1    
    60   30   92 1    
    61   31   93 1    
    62   31   94 1    
    63   31   95 1    
    64   32   33 am   BACKBONE|DICT|INTERRES
    65   32   96 1    
    66   33   34 2    
    67   33   35 1    
    68   35   36 1    
    69   35   37 1    
    70   35   97 1    
    71   36   98 1    
    72   36   99 1    
    73   36  100 1    
    74   37   38 am   BACKBONE|DICT|INTERRES
    75   37  101 1    
    76   38   39 2    
    77   38   40 1    
    78   40   41 1    
    79   40   42 1    
    80   40  102 1    
    81   41  103 1    
    82   41  104 1    
    83   41  105 1    
    84   42   43 am   BACKBONE|DICT|INTERRES
    85   42  106 1    
    86   43   44 2    
    87   43   45 1    
    88   45   46 1    
    89   45   49 1    
    90   45  107 1    
    91   46   47 1    
    92   46  108 1    
    93   46  109 1    
    94   47   48 1    
    95   48  110 1    
    96   48  111 1    
    97   49   50 am   BACKBONE|DICT|INTERRES
    98   49  112 1    
    99   50   51 2    
   100   50   52 1    
   101   52   53 1    
   102   52   54 1    
   103   52  113 1    
   104   53  114 1    
   105   53  115 1    
   106   53  116 1    
   107   54   55 am   BACKBONE|DICT|INTERRES
   108   54  117 1    
   109   55   56 2    
   110   55   57 1    
   111   57   58 1    
   112   57   59 1    
   113   57  118 1    
   114   58  119 1    
   115   58  120 1    
   116   58  121 1    
   117   59   60 am   BACKBONE|DICT|INTERRES
   118   59  122 1    
   119   60   61 2    
   120   60   62 1    
   121   62   63 1    
   122   62   64 1    
   123   62  123 1    
   124   63  124 1    
   125   63  125 1    
   126   63  126 1    
   127   64   65 am   BACKBONE|DICT|INTERRES
   128   64  127 1    
   129   65   66 2    
@<TRIPOS>SUBSTRUCTURE
     1 UNK         1 GROUP             0       ****    0 ROOT    
