@<TRIPOS>MOLECULE
3R135
127   129    1
SMALL
USER_CHARGES


@<TRIPOS>ATOM
      1 CA        -82.6746   31.3763  -75.9181 C.3       0 UNK        -0.1998 
      2 C         -83.7079   30.4498  -75.2831 C.2       0 UNK         0.4909 
      3 O         -84.8946   30.7731  -75.3003 O.2       0 UNK        -0.5240 
      4 N         -83.3262   29.2982  -74.7200 N.am      1 UNK        -0.4739 
      5 CA        -81.9784   28.7357  -74.6107 C.3       1 UNK         0.0864 
      6 C6        -81.0348   29.5060  -73.6416 C.3       11 UNK        -0.0881 
      7 S7        -81.7667   29.9431  -72.0237 S.3       11 UNK        -0.2682 
      8 C8        -81.1088   28.6335  -70.9339 C.3       11 UNK         0.0289 
      9 C9        -79.5888   28.6082  -70.7556 C.ar      11 UNK        -0.0687 
     10 C10       -78.9959   27.4155  -70.3283 C.ar      11 UNK        -0.0823 
     11 C11       -77.6135   27.3307  -70.1508 C.ar      11 UNK        -0.0830 
     12 C12       -76.8219   28.4602  -70.3613 C.ar      11 UNK        -0.1021 
     13 C13       -77.3846   29.6439  -70.8394 C.ar      11 UNK        -0.0753 
     14 C14       -78.7713   29.7209  -71.0102 C.ar      11 UNK        -0.0933 
     15 C15       -76.4862   30.8177  -71.2108 C.3       11 UNK         0.0166 
     16 S16       -75.5538   30.4926  -72.7518 S.3       11 UNK        -0.2615 
     17 C17       -74.1309   29.5143  -72.1474 C.3       11 UNK        -0.0865 
     18 CA        -72.7949   29.8877  -72.8434 C.3       10 UNK         0.0862 
     19 C         -71.5660   29.3807  -72.0260 C.2       10 UNK         0.5551 
     20 N         -70.6283   28.6313  -72.5936 N.am      10 UNK        -0.7319 
     21 O         -71.4542   29.6864  -70.8413 O.2       10 UNK        -0.5018 
     22 N         -72.7890   29.4805  -74.2590 N.am      10 UNK        -0.4509 
     23 C         -72.0293   30.0457  -75.2058 C.2       10 UNK         0.4899 
     24 O         -71.3315   31.0437  -75.0153 O.2       10 UNK        -0.4839 
     25 CA        -72.0360   29.3625  -76.5884 C.3       9 UNK         0.0222 
     26 CB        -70.9449   29.9058  -77.5346 C.3       9 UNK        -0.1966 
     27 N         -71.9611   27.8978  -76.5097 N.am      9 UNK        -0.4218 
     28 C         -71.0176   27.1533  -75.9106 C.2       9 UNK         0.5020 
     29 O         -70.0411   27.6327  -75.3331 O.2       9 UNK        -0.5274 
     30 CA        -71.1896   25.6196  -75.9109 C.3       8 UNK         0.0270 
     31 CB        -71.3797   25.1024  -74.4745 C.3       8 UNK        -0.1976 
     32 N         -72.3038   25.1455  -76.7364 N.am      8 UNK        -0.4313 
     33 C         -72.2951   25.0762  -78.0745 C.2       8 UNK         0.5041 
     34 O         -71.3053   25.3163  -78.7667 O.2       8 UNK        -0.5577 
     35 CA        -73.6319   24.7339  -78.7576 C.3       7 UNK         0.0284 
     36 CB        -73.8271   23.2122  -78.8464 C.3       7 UNK        -0.1958 
     37 N         -74.7857   25.3486  -78.0898 N.am      7 UNK        -0.4454 
     38 C         -74.9800   26.6721  -77.9795 C.2       7 UNK         0.5089 
     39 O         -74.2394   27.5149  -78.4841 O.2       7 UNK        -0.5125 
     40 CA        -76.1540   27.1417  -77.1081 C.3       6 UNK         0.0408 
     41 CB        -77.4764   27.0776  -77.8875 C.3       6 UNK        -0.1791 
     42 N         -76.2678   26.3679  -75.8730 N.am      6 UNK        -0.4762 
     43 C         -75.3750   26.3687  -74.8722 C.2       6 UNK         0.5007 
     44 O         -74.3781   27.0907  -74.8417 O.2       6 UNK        -0.5032 
     45 CA        -75.6227   25.3694  -73.7258 C.3       5 UNK         0.0783 
     46 C46       -76.5706   25.9832  -72.6768 C.3       11 UNK        -0.0857 
     47 S47       -76.9337   24.8727  -71.2661 S.3       11 UNK        -0.2512 
     48 C48       -76.9513   25.9997  -69.8257 C.3       11 UNK         0.0225 
     49 N         -76.1089   24.0854  -74.2302 N.am      5 UNK        -0.4615 
     50 C         -75.3697   23.2195  -74.9319 C.2       4 UNK         0.5053 
     51 O         -74.1938   23.4145  -75.2380 O.2       4 UNK        -0.5105 
     52 CA        -76.0765   21.9357  -75.3941 C.3       4 UNK         0.0263 
     53 CB        -76.0678   20.8818  -74.2755 C.3       4 UNK        -0.1981 
     54 N         -77.4540   22.1775  -75.8334 N.am      4 UNK        -0.4224 
     55 C         -77.7776   22.8932  -76.9191 C.2       3 UNK         0.4895 
     56 O         -76.9519   23.4185  -77.6665 O.2       3 UNK        -0.5091 
     57 CA        -79.2769   23.0837  -77.1998 C.3       3 UNK         0.0250 
     58 CB        -79.8850   21.8056  -77.8005 C.3       3 UNK        -0.1996 
     59 N         -80.0708   23.5138  -76.0403 N.am      3 UNK        -0.4254 
     60 C         -79.8413   24.6254  -75.3280 C.2       2 UNK         0.5004 
     61 O         -78.8384   25.3305  -75.4547 O.2       2 UNK        -0.5226 
     62 CA        -80.9120   25.0541  -74.3207 C.3       2 UNK         0.0269 
     63 CB        -80.5412   24.6378  -72.8881 C.3       2 UNK        -0.1926 
     64 N         -80.9989   26.5079  -74.4119 N.am      2 UNK        -0.4687 
     65 C         -82.1048   27.2412  -74.2600 C.2       1 UNK         0.5165 
     66 O         -83.1885   26.7796  -73.8888 O.2       1 UNK        -0.5079 
     67 H67       -81.8995   30.8301  -76.4526 H         1 UNK         0.0900 
     68 H68       -82.2068   31.9977  -75.1553 H         1 UNK         0.0900 
     69 H69       -83.1556   32.0395  -76.6367 H         1 UNK         0.0900 
     70 H70       -84.0274   28.6830  -74.3240 H         1 UNK         0.2959 
     71 H71       -81.5334   28.7536  -75.6073 H         1 UNK         0.1079 
     72 H72       -80.1021   28.9602  -73.4897 H         1 UNK         0.0837 
     73 H73       -80.7244   30.4407  -74.1078 H         1 UNK         0.0837 
     74 H74       -81.5642   28.7506  -69.9499 H         1 UNK         0.0685 
     75 H75       -81.4503   27.6704  -71.3166 H         1 UNK         0.0685 
     76 H76       -79.6065   26.5378  -70.1641 H         1 UNK         0.1434 
     77 H77       -75.7534   28.3902  -70.2237 H         1 UNK         0.1329 
     78 H78       -79.2048   30.6461  -71.3616 H         1 UNK         0.1335 
     79 H79       -75.8033   31.0442  -70.3910 H         1 UNK         0.0680 
     80 H80       -77.0870   31.7165  -71.3583 H         1 UNK         0.0680 
     81 H81       -74.3415   28.4529  -72.2807 H         1 UNK         0.1032 
     82 H82       -74.0473   29.6746  -71.0715 H         1 UNK         0.1032 
     83 H83       -72.7165   30.9763  -72.8142 H         1 UNK         0.0461 
     84 H84       -69.8465   28.3276  -72.0361 H         1 UNK         0.3453 
     85 H85       -70.6553   28.4012  -73.5803 H         1 UNK         0.3453 
     86 H86       -73.3311   28.6519  -74.4924 H         1 UNK         0.2984 
     87 H87       -73.0044   29.5933  -77.0342 H         1 UNK         0.0554 
     88 H88       -70.9971   29.4287  -78.5133 H         1 UNK         0.0847 
     89 H89       -69.9439   29.7414  -77.1340 H         1 UNK         0.0847 
     90 H90       -71.0609   30.9787  -77.6920 H         1 UNK         0.0847 
     91 H91       -72.7372   27.4122  -76.9426 H         1 UNK         0.3141 
     92 H92       -70.2652   25.1926  -76.3051 H         1 UNK         0.0743 
     93 H93       -72.2744   25.5190  -74.0116 H         1 UNK         0.0784 
     94 H94       -71.4651   24.0158  -74.4510 H         1 UNK         0.0784 
     95 H95       -70.5320   25.3735  -73.8438 H         1 UNK         0.0784 
     96 H96       -73.1385   24.8436  -76.2426 H         1 UNK         0.3213 
     97 H97       -73.5915   25.1304  -79.7744 H         1 UNK         0.0855 
     98 H98       -73.8960   22.7540  -77.8598 H         1 UNK         0.0814 
     99 H99       -72.9920   22.7417  -79.3671 H         1 UNK         0.0814 
    100 H100      -74.7346   22.9605  -79.3955 H         1 UNK         0.0814 
    101 H101      -75.4806   24.7178  -77.6980 H         1 UNK         0.3105 
    102 H102      -75.9718   28.1828  -76.8331 H         1 UNK         0.0547 
    103 H103      -77.4168   27.6608  -78.8073 H         1 UNK         0.0837 
    104 H104      -77.7342   26.0548  -78.1640 H         1 UNK         0.0837 
    105 H105      -78.3011   27.4809  -77.3000 H         1 UNK         0.0837 
    106 H106      -77.1039   25.7931  -75.7756 H         1 UNK         0.3020 
    107 H107      -74.6593   25.1897  -73.2430 H         1 UNK         0.1245 
    108 H108      -76.1125   26.8980  -72.3087 H         1 UNK         0.0781 
    109 H109      -77.5197   26.2782  -73.1289 H         1 UNK         0.0781 
    110 H110      -77.4768   25.5181  -69.0000 H         1 UNK         0.0836 
    111 H111      -75.9256   26.1527  -69.4864 H         1 UNK         0.0836 
    112 H112      -77.0766   23.8692  -74.0440 H         1 UNK         0.3022 
    113 H113      -75.5166   21.5372  -76.2429 H         1 UNK         0.0747 
    114 H114      -76.4962   19.9388  -74.6154 H         1 UNK         0.0793 
    115 H115      -75.0488   20.6728  -73.9464 H         1 UNK         0.0793 
    116 H116      -76.6309   21.2122  -73.4016 H         1 UNK         0.0793 
    117 H117      -78.1965   21.7878  -75.2710 H         1 UNK         0.3047 
    118 H118      -79.3584   23.8742  -77.9490 H         1 UNK         0.0822 
    119 H119      -80.9092   21.9725  -78.1347 H         1 UNK         0.0807 
    120 H120      -79.8958   20.9839  -77.0834 H         1 UNK         0.0807 
    121 H121      -79.3148   21.4726  -78.6692 H         1 UNK         0.0807 
    122 H122      -80.9110   22.9848  -75.8544 H         1 UNK         0.2946 
    123 H123      -81.8681   24.6053  -74.6006 H         1 UNK         0.1144 
    124 H124      -80.4157   23.5572  -72.8111 H         1 UNK         0.0793 
    125 H125      -81.3180   24.9270  -72.1803 H         1 UNK         0.0793 
    126 H126      -79.6099   25.1017  -72.5647 H         1 UNK         0.0793 
    127 H127      -80.1475   26.9371  -74.7539 H         1 UNK         0.2896 
@<TRIPOS>BOND
     1    1    2 1    
     2    1   67 1    
     3    1   68 1    
     4    1   69 1    
     5    2    3 2    
     6    2    4 am   BACKBONE|DICT|INTERRES
     7    4    5 1    
     8    4   70 1    
     9    5    6 1    
    10    5   65 1    
    11    5   71 1    
    12    6    7 1    
    13    6   72 1    
    14    6   73 1    
    15    7    8 1    
    16    8    9 1    
    17    8   74 1    
    18    8   75 1    
    19    9   10 ar   
    20    9   14 ar   
    21   10   11 ar   
    22   10   76 1    
    23   11   12 ar   
    24   11   48 1    
    25   12   13 ar   
    26   12   77 1    
    27   13   14 ar   
    28   13   15 1    
    29   14   78 1    
    30   15   16 1    
    31   15   79 1    
    32   15   80 1    
    33   16   17 1    
    34   17   18 1    
    35   17   81 1    
    36   17   82 1    
    37   18   19 1    
    38   18   22 1    
    39   18   83 1    
    40   19   20 am   BACKBONE|DICT|INTERRES
    41   19   21 2    
    42   20   84 1    
    43   20   85 1    
    44   22   23 am   BACKBONE|DICT|INTERRES
    45   22   86 1    
    46   23   24 2    
    47   23   25 1    
    48   25   26 1    
    49   25   27 1    
    50   25   87 1    
    51   26   88 1    
    52   26   89 1    
    53   26   90 1    
    54   27   28 am   BACKBONE|DICT|INTERRES
    55   27   91 1    
    56   28   29 2    
    57   28   30 1    
    58   30   31 1    
    59   30   32 1    
    60   30   92 1    
    61   31   93 1    
    62   31   94 1    
    63   31   95 1    
    64   32   33 am   BACKBONE|DICT|INTERRES
    65   32   96 1    
    66   33   34 2    
    67   33   35 1    
    68   35   36 1    
    69   35   37 1    
    70   35   97 1    
    71   36   98 1    
    72   36   99 1    
    73   36  100 1    
    74   37   38 am   BACKBONE|DICT|INTERRES
    75   37  101 1    
    76   38   39 2    
    77   38   40 1    
    78   40   41 1    
    79   40   42 1    
    80   40  102 1    
    81   41  103 1    
    82   41  104 1    
    83   41  105 1    
    84   42   43 am   BACKBONE|DICT|INTERRES
    85   42  106 1    
    86   43   44 2    
    87   43   45 1    
    88   45   46 1    
    89   45   49 1    
    90   45  107 1    
    91   46   47 1    
    92   46  108 1    
    93   46  109 1    
    94   47   48 1    
    95   48  110 1    
    96   48  111 1    
    97   49   50 am   BACKBONE|DICT|INTERRES
    98   49  112 1    
    99   50   51 2    
   100   50   52 1    
   101   52   53 1    
   102   52   54 1    
   103   52  113 1    
   104   53  114 1    
   105   53  115 1    
   106   53  116 1    
   107   54   55 am   BACKBONE|DICT|INTERRES
   108   54  117 1    
   109   55   56 2    
   110   55   57 1    
   111   57   58 1    
   112   57   59 1    
   113   57  118 1    
   114   58  119 1    
   115   58  120 1    
   116   58  121 1    
   117   59   60 am   BACKBONE|DICT|INTERRES
   118   59  122 1    
   119   60   61 2    
   120   60   62 1    
   121   62   63 1    
   122   62   64 1    
   123   62  123 1    
   124   63  124 1    
   125   63  125 1    
   126   63  126 1    
   127   64   65 am   BACKBONE|DICT|INTERRES
   128   64  127 1    
   129   65   66 2    
@<TRIPOS>SUBSTRUCTURE
     1 UNK         1 GROUP             0       ****    0 ROOT    
