@<TRIPOS>MOLECULE
3R135
127   129    1
SMALL
USER_CHARGES


@<TRIPOS>ATOM
      1 CA        -80.4140   23.9231  -67.7445 C.3       0 UNK        -0.1998 
      2 C         -80.9763   24.5329  -69.0200 C.2       0 UNK         0.4909 
      3 O         -82.1630   24.3683  -69.3061 O.2       0 UNK        -0.5240 
      4 N         -80.1360   25.2438  -69.7819 N.am      1 UNK        -0.4739 
      5 CA        -80.4832   25.8531  -71.0697 C.3       1 UNK         0.0864 
      6 C6        -79.3969   26.8469  -71.5404 C.3       11 UNK        -0.0881 
      7 S7        -79.2627   28.3037  -70.4539 S.3       11 UNK        -0.2682 
      8 C8        -80.1884   29.5541  -71.4003 C.3       11 UNK         0.0289 
      9 C9        -79.4720   29.9660  -72.6803 C.ar      11 UNK        -0.0687 
     10 C10       -79.9839   29.5974  -73.9291 C.ar      11 UNK        -0.0823 
     11 C11       -79.3528   30.0074  -75.1078 C.ar      11 UNK        -0.0830 
     12 C12       -78.2065   30.8073  -75.0248 C.ar      11 UNK        -0.1021 
     13 C13       -77.6669   31.1557  -73.7841 C.ar      11 UNK        -0.0753 
     14 C14       -78.3086   30.7383  -72.6147 C.ar      11 UNK        -0.0933 
     15 C15       -76.3927   31.9861  -73.7107 C.3       11 UNK         0.0166 
     16 S16       -74.9526   31.0864  -74.3710 S.3       11 UNK        -0.2615 
     17 C17       -74.8600   29.6539  -73.2411 C.3       11 UNK        -0.0865 
     18 CA        -73.4045   29.2322  -72.9152 C.3       10 UNK         0.0862 
     19 C         -73.3605   28.1068  -71.8381 C.2       10 UNK         0.5551 
     20 N         -72.6896   26.9815  -72.0606 N.am      10 UNK        -0.7319 
     21 O         -73.9267   28.2710  -70.7603 O.2       10 UNK        -0.5018 
     22 N         -72.6360   28.9213  -74.1320 N.am      10 UNK        -0.4509 
     23 C         -71.3157   29.1110  -74.2557 C.2       10 UNK         0.4899 
     24 O         -70.6183   29.6358  -73.3854 O.2       10 UNK        -0.4839 
     25 CA        -70.6634   28.6290  -75.5680 C.3       9 UNK         0.0222 
     26 CB        -69.1307   28.4846  -75.4568 C.3       9 UNK        -0.1966 
     27 N         -71.2563   27.3966  -76.1016 N.am      9 UNK        -0.4218 
     28 C         -71.3650   26.2087  -75.4821 C.2       9 UNK         0.5020 
     29 O         -70.9561   26.0011  -74.3386 O.2       9 UNK        -0.5274 
     30 CA        -72.0799   25.0699  -76.2355 C.3       8 UNK         0.0270 
     31 CB        -73.0545   24.3263  -75.3054 C.3       8 UNK        -0.1976 
     32 N         -72.8311   25.5795  -77.3833 N.am      8 UNK        -0.4313 
     33 C         -72.4785   25.4499  -78.6697 C.2       8 UNK         0.5041 
     34 O         -71.5059   24.7983  -79.0512 O.2       8 UNK        -0.5577 
     35 CA        -73.3375   26.1934  -79.7137 C.3       7 UNK         0.0284 
     36 CB        -74.3597   25.2340  -80.3446 C.3       7 UNK        -0.1958 
     37 N         -74.0446   27.3604  -79.1751 N.am      7 UNK        -0.4454 
     38 C         -73.4589   28.4507  -78.6592 C.2       7 UNK         0.5089 
     39 O         -72.2422   28.6340  -78.6571 O.2       7 UNK        -0.5125 
     40 CA        -74.3742   29.4644  -77.9484 C.3       6 UNK         0.0408 
     41 CB        -74.7551   30.6101  -78.8971 C.3       6 UNK        -0.1791 
     42 N         -75.5948   28.8732  -77.3865 N.am      6 UNK        -0.4762 
     43 C         -75.6467   27.9049  -76.4629 C.2       6 UNK         0.5007 
     44 O         -74.6281   27.3891  -75.9927 O.2       6 UNK        -0.5032 
     45 CA        -77.0492   27.4333  -76.0036 C.3       5 UNK         0.0783 
     46 C46       -78.1522   27.4660  -77.1018 C.3       11 UNK        -0.0857 
     47 S47       -78.6737   29.1193  -77.6839 S.3       11 UNK        -0.2512 
     48 C48       -79.9367   29.6047  -76.4594 C.3       11 UNK         0.0225 
     49 N         -76.9599   26.0821  -75.4494 N.am      5 UNK        -0.4615 
     50 C         -76.7056   25.7595  -74.1780 C.2       4 UNK         0.5053 
     51 O         -76.5415   26.5881  -73.2848 O.2       4 UNK        -0.5105 
     52 CA        -76.6450   24.2508  -73.8584 C.3       4 UNK         0.0263 
     53 CB        -76.4735   23.9580  -72.3563 C.3       4 UNK        -0.1981 
     54 N         -77.8174   23.5289  -74.3656 N.am      4 UNK        -0.4224 
     55 C         -77.9746   23.1252  -75.6362 C.2       3 UNK         0.4895 
     56 O         -77.1397   23.3348  -76.5175 O.2       3 UNK        -0.5091 
     57 CA        -79.2757   22.3921  -76.0089 C.3       3 UNK         0.0250 
     58 CB        -79.0593   20.8705  -75.9808 C.3       3 UNK        -0.1996 
     59 N         -80.4133   22.7325  -75.1531 N.am      3 UNK        -0.4254 
     60 C         -81.0142   23.9295  -75.1132 C.2       2 UNK         0.5004 
     61 O         -80.6923   24.8835  -75.8222 O.2       2 UNK        -0.5226 
     62 CA        -82.1545   24.1102  -74.0938 C.3       2 UNK         0.0269 
     63 CB        -82.7494   22.7839  -73.5652 C.3       2 UNK        -0.1926 
     64 N         -81.7446   24.9717  -72.9781 N.am      2 UNK        -0.4687 
     65 C         -80.7125   24.7714  -72.1440 C.2       1 UNK         0.5165 
     66 O         -79.9423   23.8088  -72.2151 O.2       1 UNK        -0.5079 
     67 H67       -80.5266   22.8396  -67.7660 H         1 UNK         0.0900 
     68 H68       -80.9516   24.3050  -66.8771 H         1 UNK         0.0900 
     69 H69       -79.3562   24.1515  -67.6154 H         1 UNK         0.0900 
     70 H70       -79.1715   25.3435  -69.5005 H         1 UNK         0.2959 
     71 H71       -81.4185   26.4012  -70.9346 H         1 UNK         0.1079 
     72 H72       -78.4234   26.3581  -71.5517 H         1 UNK         0.0837 
     73 H73       -79.5750   27.1724  -72.5663 H         1 UNK         0.0837 
     74 H74       -81.1882   29.1743  -71.6161 H         1 UNK         0.0685 
     75 H75       -80.3275   30.4352  -70.7722 H         1 UNK         0.0685 
     76 H76       -80.8823   28.9978  -73.9829 H         1 UNK         0.1434 
     77 H77       -77.7142   31.1447  -75.9267 H         1 UNK         0.1329 
     78 H78       -77.9061   31.0131  -71.6493 H         1 UNK         0.1335 
     79 H79       -76.5298   32.9030  -74.2855 H         1 UNK         0.0680 
     80 H80       -76.1832   32.2944  -72.6851 H         1 UNK         0.0680 
     81 H81       -75.4059   28.8258  -73.6888 H         1 UNK         0.1032 
     82 H82       -75.3936   29.8979  -72.3207 H         1 UNK         0.1032 
     83 H83       -72.9382   30.0964  -72.4381 H         1 UNK         0.0461 
     84 H84       -72.6696   26.2762  -71.3424 H         1 UNK         0.3453 
     85 H85       -72.1742   26.8352  -72.9208 H         1 UNK         0.3453 
     86 H86       -73.1479   28.4527  -74.8704 H         1 UNK         0.2984 
     87 H87       -70.8673   29.4063  -76.3056 H         1 UNK         0.0554 
     88 H88       -68.6921   28.1690  -76.4033 H         1 UNK         0.0847 
     89 H89       -68.8480   27.7559  -74.6962 H         1 UNK         0.0847 
     90 H90       -68.6650   29.4333  -75.1872 H         1 UNK         0.0847 
     91 H91       -71.6284   27.4811  -77.0412 H         1 UNK         0.3141 
     92 H92       -71.3129   24.3659  -76.5639 H         1 UNK         0.0743 
     93 H93       -73.7604   25.0162  -74.8424 H         1 UNK         0.0784 
     94 H94       -73.6235   23.5685  -75.8445 H         1 UNK         0.0784 
     95 H95       -72.5206   23.8195  -74.5005 H         1 UNK         0.0784 
     96 H96       -73.6266   26.1656  -77.1450 H         1 UNK         0.3213 
     97 H97       -72.6641   26.5458  -80.4980 H         1 UNK         0.0855 
     98 H98       -75.0731   24.8613  -79.6082 H         1 UNK         0.0814 
     99 H99       -73.8619   24.3674  -80.7822 H         1 UNK         0.0814 
    100 H100      -74.9211   25.7191  -81.1434 H         1 UNK         0.0814 
    101 H101      -75.0517   27.3048  -79.1337 H         1 UNK         0.3105 
    102 H102      -73.8051   29.8858  -77.1171 H         1 UNK         0.0547 
    103 H103      -73.8653   31.0845  -79.3135 H         1 UNK         0.0837 
    104 H104      -75.3602   30.2588  -79.7337 H         1 UNK         0.0837 
    105 H105      -75.3183   31.3845  -78.3758 H         1 UNK         0.0837 
    106 H106      -76.4764   29.2438  -77.7222 H         1 UNK         0.3020 
    107 H107      -77.3472   28.1076  -75.1990 H         1 UNK         0.1245 
    108 H108      -79.0463   26.9595  -76.7331 H         1 UNK         0.0781 
    109 H109      -77.8339   26.8873  -77.9709 H         1 UNK         0.0781 
    110 H110      -80.6545   28.7901  -76.3491 H         1 UNK         0.0836 
    111 H111      -80.4947   30.4535  -76.8564 H         1 UNK         0.0836 
    112 H112      -77.0401   25.3162  -76.1092 H         1 UNK         0.3022 
    113 H113      -75.7594   23.8586  -74.3600 H         1 UNK         0.0747 
    114 H114      -76.3529   22.8902  -72.1736 H         1 UNK         0.0793 
    115 H115      -75.5871   24.4551  -71.9594 H         1 UNK         0.0793 
    116 H116      -77.3282   24.3002  -71.7743 H         1 UNK         0.0793 
    117 H117      -78.5784   23.3894  -73.7077 H         1 UNK         0.3047 
    118 H118      -79.5289   22.6822  -77.0310 H         1 UNK         0.0822 
    119 H119      -79.9445   20.3365  -76.3270 H         1 UNK         0.0807 
    120 H120      -78.8214   20.5143  -74.9776 H         1 UNK         0.0807 
    121 H121      -78.2338   20.5818  -76.6332 H         1 UNK         0.0807 
    122 H122      -80.7294   22.0203  -74.5107 H         1 UNK         0.2946 
    123 H123      -82.9494   24.6368  -74.6251 H         1 UNK         0.1144 
    124 H124      -83.0795   22.1448  -74.3855 H         1 UNK         0.0793 
    125 H125      -83.6225   22.9734  -72.9405 H         1 UNK         0.0793 
    126 H126      -82.0391   22.2152  -72.9641 H         1 UNK         0.0793 
    127 H127      -82.2971   25.8100  -72.8615 H         1 UNK         0.2896 
@<TRIPOS>BOND
     1    1    2 1    
     2    1   67 1    
     3    1   68 1    
     4    1   69 1    
     5    2    3 2    
     6    2    4 am   BACKBONE|DICT|INTERRES
     7    4    5 1    
     8    4   70 1    
     9    5    6 1    
    10    5   65 1    
    11    5   71 1    
    12    6    7 1    
    13    6   72 1    
    14    6   73 1    
    15    7    8 1    
    16    8    9 1    
    17    8   74 1    
    18    8   75 1    
    19    9   10 ar   
    20    9   14 ar   
    21   10   11 ar   
    22   10   76 1    
    23   11   12 ar   
    24   11   48 1    
    25   12   13 ar   
    26   12   77 1    
    27   13   14 ar   
    28   13   15 1    
    29   14   78 1    
    30   15   16 1    
    31   15   79 1    
    32   15   80 1    
    33   16   17 1    
    34   17   18 1    
    35   17   81 1    
    36   17   82 1    
    37   18   19 1    
    38   18   22 1    
    39   18   83 1    
    40   19   20 am   BACKBONE|DICT|INTERRES
    41   19   21 2    
    42   20   84 1    
    43   20   85 1    
    44   22   23 am   BACKBONE|DICT|INTERRES
    45   22   86 1    
    46   23   24 2    
    47   23   25 1    
    48   25   26 1    
    49   25   27 1    
    50   25   87 1    
    51   26   88 1    
    52   26   89 1    
    53   26   90 1    
    54   27   28 am   BACKBONE|DICT|INTERRES
    55   27   91 1    
    56   28   29 2    
    57   28   30 1    
    58   30   31 1    
    59   30   32 1    
    60   30   92 1    
    61   31   93 1    
    62   31   94 1    
    63   31   95 1    
    64   32   33 am   BACKBONE|DICT|INTERRES
    65   32   96 1    
    66   33   34 2    
    67   33   35 1    
    68   35   36 1    
    69   35   37 1    
    70   35   97 1    
    71   36   98 1    
    72   36   99 1    
    73   36  100 1    
    74   37   38 am   BACKBONE|DICT|INTERRES
    75   37  101 1    
    76   38   39 2    
    77   38   40 1    
    78   40   41 1    
    79   40   42 1    
    80   40  102 1    
    81   41  103 1    
    82   41  104 1    
    83   41  105 1    
    84   42   43 am   BACKBONE|DICT|INTERRES
    85   42  106 1    
    86   43   44 2    
    87   43   45 1    
    88   45   46 1    
    89   45   49 1    
    90   45  107 1    
    91   46   47 1    
    92   46  108 1    
    93   46  109 1    
    94   47   48 1    
    95   48  110 1    
    96   48  111 1    
    97   49   50 am   BACKBONE|DICT|INTERRES
    98   49  112 1    
    99   50   51 2    
   100   50   52 1    
   101   52   53 1    
   102   52   54 1    
   103   52  113 1    
   104   53  114 1    
   105   53  115 1    
   106   53  116 1    
   107   54   55 am   BACKBONE|DICT|INTERRES
   108   54  117 1    
   109   55   56 2    
   110   55   57 1    
   111   57   58 1    
   112   57   59 1    
   113   57  118 1    
   114   58  119 1    
   115   58  120 1    
   116   58  121 1    
   117   59   60 am   BACKBONE|DICT|INTERRES
   118   59  122 1    
   119   60   61 2    
   120   60   62 1    
   121   62   63 1    
   122   62   64 1    
   123   62  123 1    
   124   63  124 1    
   125   63  125 1    
   126   63  126 1    
   127   64   65 am   BACKBONE|DICT|INTERRES
   128   64  127 1    
   129   65   66 2    
@<TRIPOS>SUBSTRUCTURE
     1 UNK         1 GROUP             0       ****    0 ROOT    
