@<TRIPOS>MOLECULE
3R135
127   129    1
SMALL
USER_CHARGES


@<TRIPOS>ATOM
      1 CA        -84.6313   24.8647  -71.8374 C.3       0 UNK        -0.1998 
      2 C         -83.6006   25.8599  -72.3477 C.2       0 UNK         0.4909 
      3 O         -83.9256   26.7100  -73.1775 O.2       0 UNK        -0.5240 
      4 N         -82.3534   25.7562  -71.8719 N.am      1 UNK        -0.4739 
      5 CA        -81.2247   26.6321  -72.2139 C.3       1 UNK         0.0864 
      6 C6        -80.1397   26.6152  -71.1053 C.3       11 UNK        -0.0881 
      7 S7        -80.6792   27.4160  -69.5557 S.3       11 UNK        -0.2682 
      8 C8        -80.6990   29.1974  -69.9815 C.3       11 UNK         0.0289 
      9 C9        -79.5227   29.6417  -70.8461 C.ar      11 UNK        -0.0687 
     10 C10       -79.7506   30.2078  -72.1054 C.ar      11 UNK        -0.0823 
     11 C11       -78.6819   30.5819  -72.9276 C.ar      11 UNK        -0.0830 
     12 C12       -77.3732   30.3894  -72.4717 C.ar      11 UNK        -0.1021 
     13 C13       -77.1324   29.8076  -71.2241 C.ar      11 UNK        -0.0753 
     14 C14       -78.2088   29.4580  -70.4049 C.ar      11 UNK        -0.0933 
     15 C15       -75.7100   29.4932  -70.7967 C.3       11 UNK         0.0166 
     16 S16       -75.2063   27.9088  -71.5267 S.3       11 UNK        -0.2615 
     17 C17       -73.4786   27.7546  -70.9702 C.3       11 UNK        -0.0865 
     18 CA        -72.4745   28.5984  -71.8001 C.3       10 UNK         0.0862 
     19 C         -71.0170   28.3741  -71.2954 C.2       10 UNK         0.5551 
     20 N         -70.0849   27.8957  -72.1121 N.am      10 UNK        -0.7319 
     21 O         -70.7263   28.6454  -70.1329 O.2       10 UNK        -0.5018 
     22 N         -72.6581   28.4295  -73.2516 N.am      10 UNK        -0.4509 
     23 C         -72.2052   29.2892  -74.1724 C.2       10 UNK         0.4899 
     24 O         -71.6469   30.3528  -73.8966 O.2       10 UNK        -0.4839 
     25 CA        -72.4044   28.8877  -75.6464 C.3       9 UNK         0.0222 
     26 CB        -71.5034   29.6867  -76.6110 C.3       9 UNK        -0.1966 
     27 N         -72.2595   27.4478  -75.8982 N.am      9 UNK        -0.4218 
     28 C         -71.2054   26.6702  -75.6050 C.2       9 UNK         0.5020 
     29 O         -70.2081   27.0594  -74.9948 O.2       9 UNK        -0.5274 
     30 CA        -71.2666   25.2071  -76.0748 C.3       8 UNK         0.0270 
     31 CB        -71.8407   24.2937  -74.9797 C.3       8 UNK        -0.1976 
     32 N         -72.0287   25.0356  -77.3151 N.am      8 UNK        -0.4313 
     33 C         -71.5899   25.3796  -78.5321 C.2       8 UNK         0.5041 
     34 O         -70.4864   25.8852  -78.7411 O.2       8 UNK        -0.5577 
     35 CA        -72.5207   25.1009  -79.7271 C.3       7 UNK         0.0284 
     36 CB        -72.6662   23.5867  -79.9818 C.3       7 UNK        -0.1958 
     37 N         -73.8319   25.7634  -79.6625 N.am      7 UNK        -0.4454 
     38 C         -74.8205   25.5756  -78.7788 C.2       7 UNK         0.5089 
     39 O         -74.7555   24.8027  -77.8202 O.2       7 UNK        -0.5125 
     40 CA        -76.1174   26.3586  -79.0394 C.3       6 UNK         0.0408 
     41 CB        -77.1309   25.4737  -79.7811 C.3       6 UNK        -0.1791 
     42 N         -76.7051   26.8137  -77.7812 N.am      6 UNK        -0.4762 
     43 C         -76.2374   27.8443  -77.0623 C.2       6 UNK         0.5007 
     44 O         -75.3578   28.6053  -77.4653 O.2       6 UNK        -0.5032 
     45 CA        -76.8174   28.0261  -75.6432 C.3       5 UNK         0.0783 
     46 C46       -78.1461   28.8259  -75.6605 C.3       11 UNK        -0.0857 
     47 S47       -77.8526   30.6262  -75.6344 S.3       11 UNK        -0.2512 
     48 C48       -78.9649   31.1951  -74.2988 C.3       11 UNK         0.0225 
     49 N         -76.9639   26.7386  -74.9625 N.am      5 UNK        -0.4615 
     50 C         -75.9488   25.9412  -74.6016 C.2       4 UNK         0.5053 
     51 O         -74.7647   26.2562  -74.7210 O.2       4 UNK        -0.5105 
     52 CA        -76.3061   24.5645  -74.0172 C.3       4 UNK         0.0263 
     53 CB        -76.3640   24.6274  -72.4833 C.3       4 UNK        -0.1981 
     54 N         -77.5948   24.0840  -74.5227 N.am      4 UNK        -0.4224 
     55 C         -77.7508   23.1297  -75.4503 C.2       3 UNK         0.4895 
     56 O         -76.8213   22.4811  -75.9312 O.2       3 UNK        -0.5091 
     57 CA        -79.1866   22.8213  -75.9222 C.3       3 UNK         0.0250 
     58 CB        -79.7353   21.5852  -75.1910 C.3       3 UNK        -0.1996 
     59 N         -80.1336   23.9293  -75.7616 N.am      3 UNK        -0.4254 
     60 C         -80.0738   25.0918  -76.4256 C.2       2 UNK         0.5004 
     61 O         -79.2057   25.3656  -77.2528 O.2       2 UNK        -0.5226 
     62 CA        -81.1277   26.1553  -76.0668 C.3       2 UNK         0.0269 
     63 CB        -82.4088   25.9349  -76.8862 C.3       2 UNK        -0.1926 
     64 N         -81.4773   26.2580  -74.6417 N.am      2 UNK        -0.4687 
     65 C         -80.6289   26.3175  -73.6054 C.2       1 UNK         0.5165 
     66 O         -79.4173   26.1348  -73.7232 O.2       1 UNK        -0.5079 
     67 H67       -85.0340   24.2834  -72.6664 H         1 UNK         0.0900 
     68 H68       -85.4557   25.3922  -71.3584 H         1 UNK         0.0900 
     69 H69       -84.2050   24.1720  -71.1121 H         1 UNK         0.0900 
     70 H70       -82.1448   25.0302  -71.2011 H         1 UNK         0.2959 
     71 H71       -81.6010   27.6539  -72.2922 H         1 UNK         0.1079 
     72 H72       -79.8514   25.5875  -70.8776 H         1 UNK         0.0837 
     73 H73       -79.2178   27.0980  -71.4317 H         1 UNK         0.0837 
     74 H74       -81.6448   29.4198  -70.4779 H         1 UNK         0.0685 
     75 H75       -80.6990   29.7781  -69.0582 H         1 UNK         0.0685 
     76 H76       -80.7654   30.3512  -72.4508 H         1 UNK         0.1434 
     77 H77       -76.5364   30.6588  -73.1013 H         1 UNK         0.1329 
     78 H78       -78.0268   28.9964  -69.4439 H         1 UNK         0.1335 
     79 H79       -75.0359   30.2850  -71.1262 H         1 UNK         0.0680 
     80 H80       -75.6337   29.4408  -69.7095 H         1 UNK         0.0680 
     81 H81       -73.4266   28.0233  -69.9133 H         1 UNK         0.1032 
     82 H82       -73.2123   26.6974  -71.0244 H         1 UNK         0.1032 
     83 H83       -72.6936   29.6449  -71.5807 H         1 UNK         0.0461 
     84 H84       -69.1494   27.7623  -71.7633 H         1 UNK         0.3453 
     85 H85       -70.2935   27.6819  -73.0817 H         1 UNK         0.3453 
     86 H86       -73.1380   27.5919  -73.5558 H         1 UNK         0.2984 
     87 H87       -73.4384   29.1389  -75.8759 H         1 UNK         0.0554 
     88 H88       -71.6927   29.4108  -77.6484 H         1 UNK         0.0847 
     89 H89       -70.4456   29.5180  -76.4063 H         1 UNK         0.0847 
     90 H90       -71.6866   30.7584  -76.5247 H         1 UNK         0.0847 
     91 H91       -73.0676   26.9961  -76.3062 H         1 UNK         0.3141 
     92 H92       -70.2387   24.8898  -76.2639 H         1 UNK         0.0743 
     93 H93       -71.3056   24.4268  -74.0384 H         1 UNK         0.0784 
     94 H94       -72.8933   24.4973  -74.7884 H         1 UNK         0.0784 
     95 H95       -71.7513   23.2432  -75.2568 H         1 UNK         0.0784 
     96 H96       -72.9859   24.6930  -77.2458 H         1 UNK         0.3213 
     97 H97       -72.0266   25.5236  -80.6038 H         1 UNK         0.0855 
     98 H98       -73.1722   23.0762  -79.1619 H         1 UNK         0.0814 
     99 H99       -71.6888   23.1170  -80.1000 H         1 UNK         0.0814 
    100 H100      -73.2302   23.3920  -80.8939 H         1 UNK         0.0814 
    101 H101      -73.9915   26.4458  -80.3915 H         1 UNK         0.3105 
    102 H102      -75.8983   27.2295  -79.6610 H         1 UNK         0.0547 
    103 H103      -78.0620   26.0082  -79.9699 H         1 UNK         0.0837 
    104 H104      -76.7383   25.1515  -80.7463 H         1 UNK         0.0837 
    105 H105      -77.3725   24.5754  -79.2108 H         1 UNK         0.0837 
    106 H106      -77.4380   26.2275  -77.3908 H         1 UNK         0.3020 
    107 H107      -76.0802   28.5873  -75.0633 H         1 UNK         0.1245 
    108 H108      -78.7479   28.5681  -74.7885 H         1 UNK         0.0781 
    109 H109      -78.7621   28.5741  -76.5257 H         1 UNK         0.0781 
    110 H110      -78.8805   32.2793  -74.2154 H         1 UNK         0.0836 
    111 H111      -79.9924   30.9905  -74.6039 H         1 UNK         0.0836 
    112 H112      -77.9094   26.4546  -74.7260 H         1 UNK         0.3022 
    113 H113      -75.5081   23.8743  -74.2986 H         1 UNK         0.0747 
    114 H114      -76.6105   23.6560  -72.0548 H         1 UNK         0.0793 
    115 H115      -77.1069   25.3472  -72.1360 H         1 UNK         0.0793 
    116 H116      -75.3995   24.9273  -72.0720 H         1 UNK         0.0793 
    117 H117      -78.4142   24.5907  -74.2007 H         1 UNK         0.3047 
    118 H118      -79.1293   22.5900  -76.9882 H         1 UNK         0.0822 
    119 H119      -79.0700   20.7296  -75.3166 H         1 UNK         0.0807 
    120 H120      -80.7109   21.2931  -75.5801 H         1 UNK         0.0807 
    121 H121      -79.8384   21.7628  -74.1197 H         1 UNK         0.0807 
    122 H122      -80.8727   23.8062  -75.0847 H         1 UNK         0.2946 
    123 H123      -80.7087   27.1204  -76.3561 H         1 UNK         0.1144 
    124 H124      -82.1870   25.8756  -77.9529 H         1 UNK         0.0793 
    125 H125      -83.1136   26.7553  -76.7494 H         1 UNK         0.0793 
    126 H126      -82.9132   25.0096  -76.6050 H         1 UNK         0.0793 
    127 H127      -82.4586   26.4113  -74.4253 H         1 UNK         0.2896 
@<TRIPOS>BOND
     1    1    2 1    
     2    1   67 1    
     3    1   68 1    
     4    1   69 1    
     5    2    3 2    
     6    2    4 am   BACKBONE|DICT|INTERRES
     7    4    5 1    
     8    4   70 1    
     9    5    6 1    
    10    5   65 1    
    11    5   71 1    
    12    6    7 1    
    13    6   72 1    
    14    6   73 1    
    15    7    8 1    
    16    8    9 1    
    17    8   74 1    
    18    8   75 1    
    19    9   10 ar   
    20    9   14 ar   
    21   10   11 ar   
    22   10   76 1    
    23   11   12 ar   
    24   11   48 1    
    25   12   13 ar   
    26   12   77 1    
    27   13   14 ar   
    28   13   15 1    
    29   14   78 1    
    30   15   16 1    
    31   15   79 1    
    32   15   80 1    
    33   16   17 1    
    34   17   18 1    
    35   17   81 1    
    36   17   82 1    
    37   18   19 1    
    38   18   22 1    
    39   18   83 1    
    40   19   20 am   BACKBONE|DICT|INTERRES
    41   19   21 2    
    42   20   84 1    
    43   20   85 1    
    44   22   23 am   BACKBONE|DICT|INTERRES
    45   22   86 1    
    46   23   24 2    
    47   23   25 1    
    48   25   26 1    
    49   25   27 1    
    50   25   87 1    
    51   26   88 1    
    52   26   89 1    
    53   26   90 1    
    54   27   28 am   BACKBONE|DICT|INTERRES
    55   27   91 1    
    56   28   29 2    
    57   28   30 1    
    58   30   31 1    
    59   30   32 1    
    60   30   92 1    
    61   31   93 1    
    62   31   94 1    
    63   31   95 1    
    64   32   33 am   BACKBONE|DICT|INTERRES
    65   32   96 1    
    66   33   34 2    
    67   33   35 1    
    68   35   36 1    
    69   35   37 1    
    70   35   97 1    
    71   36   98 1    
    72   36   99 1    
    73   36  100 1    
    74   37   38 am   BACKBONE|DICT|INTERRES
    75   37  101 1    
    76   38   39 2    
    77   38   40 1    
    78   40   41 1    
    79   40   42 1    
    80   40  102 1    
    81   41  103 1    
    82   41  104 1    
    83   41  105 1    
    84   42   43 am   BACKBONE|DICT|INTERRES
    85   42  106 1    
    86   43   44 2    
    87   43   45 1    
    88   45   46 1    
    89   45   49 1    
    90   45  107 1    
    91   46   47 1    
    92   46  108 1    
    93   46  109 1    
    94   47   48 1    
    95   48  110 1    
    96   48  111 1    
    97   49   50 am   BACKBONE|DICT|INTERRES
    98   49  112 1    
    99   50   51 2    
   100   50   52 1    
   101   52   53 1    
   102   52   54 1    
   103   52  113 1    
   104   53  114 1    
   105   53  115 1    
   106   53  116 1    
   107   54   55 am   BACKBONE|DICT|INTERRES
   108   54  117 1    
   109   55   56 2    
   110   55   57 1    
   111   57   58 1    
   112   57   59 1    
   113   57  118 1    
   114   58  119 1    
   115   58  120 1    
   116   58  121 1    
   117   59   60 am   BACKBONE|DICT|INTERRES
   118   59  122 1    
   119   60   61 2    
   120   60   62 1    
   121   62   63 1    
   122   62   64 1    
   123   62  123 1    
   124   63  124 1    
   125   63  125 1    
   126   63  126 1    
   127   64   65 am   BACKBONE|DICT|INTERRES
   128   64  127 1    
   129   65   66 2    
@<TRIPOS>SUBSTRUCTURE
     1 UNK         1 GROUP             0       ****    0 ROOT    
