@<TRIPOS>MOLECULE
3R135
127   129    1
SMALL
USER_CHARGES


@<TRIPOS>ATOM
      1 CA        -81.7727   27.9035  -70.4674 C.3       0 UNK        -0.1998 
      2 C         -81.4549   27.4929  -71.8965 C.2       0 UNK         0.4909 
      3 O         -80.5303   26.7107  -72.1097 O.2       0 UNK        -0.5240 
      4 N         -82.2227   28.0039  -72.8691 N.am      1 UNK        -0.4739 
      5 CA        -82.0902   27.8530  -74.3311 C.3       1 UNK         0.0864 
      6 C6        -80.7600   28.4054  -74.9118 C.3       11 UNK        -0.0881 
      7 S7        -80.3946   30.1311  -74.4381 S.3       11 UNK        -0.2682 
      8 C8        -78.5752   30.1573  -74.5644 C.3       11 UNK         0.0289 
      9 C9        -77.8941   29.9639  -73.2149 C.ar      11 UNK        -0.0687 
     10 C10       -77.9442   28.7283  -72.5661 C.ar      11 UNK        -0.0823 
     11 C11       -77.3293   28.5442  -71.3259 C.ar      11 UNK        -0.0830 
     12 C12       -76.6488   29.6124  -70.7347 C.ar      11 UNK        -0.1021 
     13 C13       -76.5564   30.8486  -71.3859 C.ar      11 UNK        -0.0753 
     14 C14       -77.1931   31.0176  -72.6204 C.ar      11 UNK        -0.0933 
     15 C15       -75.7888   32.0200  -70.7742 C.3       11 UNK         0.0166 
     16 S16       -74.2329   31.5700  -69.9229 S.3       11 UNK        -0.2615 
     17 C17       -73.3469   30.5898  -71.1842 C.3       11 UNK        -0.0865 
     18 CA        -72.6730   31.4454  -72.2991 C.3       10 UNK         0.0862 
     19 C         -71.2326   31.9237  -71.9357 C.2       10 UNK         0.5551 
     20 N         -70.3134   32.0209  -72.8887 N.am      10 UNK        -0.7319 
     21 O         -70.9459   32.2401  -70.7838 O.2       10 UNK        -0.5018 
     22 N         -72.8019   30.8148  -73.6260 N.am      10 UNK        -0.4509 
     23 C         -72.3392   29.6031  -73.9620 C.2       10 UNK         0.4899 
     24 O         -71.7134   28.8719  -73.1916 O.2       10 UNK        -0.4839 
     25 CA        -72.6592   29.1526  -75.3982 C.3       9 UNK         0.0222 
     26 CB        -71.8200   29.9164  -76.4436 C.3       9 UNK        -0.1966 
     27 N         -72.5664   27.6997  -75.5782 N.am      9 UNK        -0.4218 
     28 C         -71.4775   26.9166  -75.6289 C.2       9 UNK         0.5020 
     29 O         -70.3144   27.3205  -75.5784 O.2       9 UNK        -0.5274 
     30 CA        -71.7347   25.4063  -75.7907 C.3       8 UNK         0.0270 
     31 CB        -71.9966   24.7511  -74.4247 C.3       8 UNK        -0.1976 
     32 N         -72.8450   25.1104  -76.7023 N.am      8 UNK        -0.4313 
     33 C         -72.8303   25.3643  -78.0195 C.2       8 UNK         0.5041 
     34 O         -71.8471   25.7942  -78.6247 O.2       8 UNK        -0.5577 
     35 CA        -74.1326   25.1098  -78.7964 C.3       7 UNK         0.0284 
     36 CB        -74.2563   23.6263  -79.1795 C.3       7 UNK        -0.1958 
     37 N         -75.3259   25.5403  -78.0626 N.am      7 UNK        -0.4454 
     38 C         -75.6254   26.8177  -77.7821 C.2       7 UNK         0.5089 
     39 O         -74.9599   27.7787  -78.1678 O.2       7 UNK        -0.5125 
     40 CA        -76.8599   27.0711  -76.8976 C.3       6 UNK         0.0408 
     41 CB        -78.1464   27.0369  -77.7357 C.3       6 UNK        -0.1791 
     42 N         -76.9712   26.1276  -75.7823 N.am      6 UNK        -0.4762 
     43 C         -76.0706   26.0076  -74.7945 C.2       6 UNK         0.5007 
     44 O         -75.0815   26.7314  -74.6876 O.2       6 UNK        -0.5032 
     45 CA        -76.2546   24.8304  -73.8165 C.3       5 UNK         0.0783 
     46 C46       -77.1525   25.1808  -72.6047 C.3       11 UNK        -0.0857 
     47 S47       -76.2085   26.0028  -71.2734 S.3       11 UNK        -0.2512 
     48 C48       -77.4107   27.2006  -70.6148 C.3       11 UNK         0.0225 
     49 N         -76.7165   23.6288  -74.5159 N.am      5 UNK        -0.4615 
     50 C         -75.9439   22.8983  -75.3308 C.2       4 UNK         0.5053 
     51 O         -74.7662   23.1628  -75.5729 O.2       4 UNK        -0.5105 
     52 CA        -76.6044   21.6886  -76.0115 C.3       4 UNK         0.0263 
     53 CB        -76.6658   20.4911  -75.0501 C.3       4 UNK        -0.1981 
     54 N         -77.9468   21.9851  -76.5181 N.am      4 UNK        -0.4224 
     55 C         -78.1991   22.8415  -77.5177 C.2       3 UNK         0.4895 
     56 O         -77.3271   23.4608  -78.1248 O.2       3 UNK        -0.5091 
     57 CA        -79.6740   23.0776  -77.8821 C.3       3 UNK         0.0250 
     58 CB        -80.1698   21.9914  -78.8500 C.3       3 UNK        -0.1996 
     59 N         -80.5819   23.1652  -76.7320 N.am      3 UNK        -0.4254 
     60 C         -80.4586   24.0342  -75.7195 C.2       2 UNK         0.5004 
     61 O         -79.4894   24.7834  -75.5673 O.2       2 UNK        -0.5226 
     62 CA        -81.5941   24.0520  -74.6841 C.3       2 UNK         0.0269 
     63 CB        -81.2561   23.1250  -73.5058 C.3       2 UNK        -0.1926 
     64 N         -81.7793   25.4105  -74.1795 N.am      2 UNK        -0.4687 
     65 C         -82.3230   26.4211  -74.8662 C.2       1 UNK         0.5165 
     66 O         -82.9604   26.2629  -75.9088 O.2       1 UNK        -0.5079 
     67 H67       -82.0090   27.0244  -69.8685 H         1 UNK         0.0900 
     68 H68       -82.6189   28.5883  -70.4169 H         1 UNK         0.0900 
     69 H69       -80.9089   28.3974  -70.0230 H         1 UNK         0.0900 
     70 H70       -82.9814   28.6119  -72.5935 H         1 UNK         0.2959 
     71 H71       -82.8966   28.4583  -74.7490 H         1 UNK         0.1079 
     72 H72       -80.7956   28.3793  -76.0025 H         1 UNK         0.0837 
     73 H73       -79.9288   27.7589  -74.6301 H         1 UNK         0.0837 
     74 H74       -78.2786   31.1110  -75.0035 H         1 UNK         0.0685 
     75 H75       -78.2370   29.3902  -75.2606 H         1 UNK         0.0685 
     76 H76       -78.4731   27.9093  -73.0233 H         1 UNK         0.1434 
     77 H77       -76.1739   29.4757  -69.7729 H         1 UNK         0.1329 
     78 H78       -77.1405   31.9739  -73.1228 H         1 UNK         0.1335 
     79 H79       -75.5508   32.7565  -71.5431 H         1 UNK         0.0680 
     80 H80       -76.4404   32.5243  -70.0597 H         1 UNK         0.0680 
     81 H81       -74.0534   29.8831  -71.6194 H         1 UNK         0.1032 
     82 H82       -72.6093   29.9610  -70.6819 H         1 UNK         0.1032 
     83 H83       -73.2438   32.3688  -72.3988 H         1 UNK         0.0461 
     84 H84       -70.5353   31.7681  -73.8379 H         1 UNK         0.3453 
     85 H85       -69.3869   32.3394  -72.6521 H         1 UNK         0.3453 
     86 H86       -73.2924   31.3596  -74.3208 H         1 UNK         0.2984 
     87 H87       -73.7094   29.3883  -75.5788 H         1 UNK         0.0554 
     88 H88       -72.0411   30.9839  -76.4222 H         1 UNK         0.0847 
     89 H89       -72.0328   29.5643  -77.4533 H         1 UNK         0.0847 
     90 H90       -70.7495   29.8069  -76.2686 H         1 UNK         0.0847 
     91 H91       -73.4651   27.2256  -75.5212 H         1 UNK         0.3141 
     92 H92       -70.8320   24.9593  -76.2124 H         1 UNK         0.0743 
     93 H93       -72.8890   25.1559  -73.9471 H         1 UNK         0.0784 
     94 H94       -72.1256   23.6726  -74.5188 H         1 UNK         0.0784 
     95 H95       -71.1598   24.9210  -73.7459 H         1 UNK         0.0784 
     96 H96       -73.6687   24.6729  -76.2993 H         1 UNK         0.3213 
     97 H97       -74.0832   25.6923  -79.7190 H         1 UNK         0.0855 
     98 H98       -74.3559   22.9877  -78.3015 H         1 UNK         0.0814 
     99 H99       -73.3769   23.2903  -79.7305 H         1 UNK         0.0814 
    100 H100      -75.1229   23.4537  -79.8179 H         1 UNK         0.0814 
    101 H101      -75.9780   24.8117  -77.7836 H         1 UNK         0.3105 
    102 H102      -76.7558   28.0702  -76.4718 H         1 UNK         0.0547 
    103 H103      -78.1159   27.7862  -78.5276 H         1 UNK         0.0837 
    104 H104      -78.2929   26.0666  -78.2100 H         1 UNK         0.0837 
    105 H105      -79.0242   27.2427  -77.1254 H         1 UNK         0.0837 
    106 H106      -77.7855   25.5153  -75.7783 H         1 UNK         0.3020 
    107 H107      -75.2598   24.5923  -73.4317 H         1 UNK         0.1245 
    108 H108      -78.0209   25.7663  -72.9061 H         1 UNK         0.0781 
    109 H109      -77.5604   24.2688  -72.1661 H         1 UNK         0.0781 
    110 H110      -78.4189   26.7926  -70.6763 H         1 UNK         0.0836 
    111 H111      -77.2124   27.3329  -69.5502 H         1 UNK         0.0836 
    112 H112      -77.6939   23.3940  -74.4237 H         1 UNK         0.3022 
    113 H113      -75.9795   21.4087  -76.8626 H         1 UNK         0.0747 
    114 H114      -77.0499   19.6014  -75.5494 H         1 UNK         0.0793 
    115 H115      -75.6725   20.2445  -74.6720 H         1 UNK         0.0793 
    116 H116      -77.3019   20.6935  -74.1874 H         1 UNK         0.0793 
    117 H117      -78.7247   21.5211  -76.0722 H         1 UNK         0.3047 
    118 H118      -79.7247   24.0372  -78.4004 H         1 UNK         0.0822 
    119 H119      -80.1927   21.0079  -78.3790 H         1 UNK         0.0807 
    120 H120      -79.5187   21.9196  -79.7226 H         1 UNK         0.0807 
    121 H121      -81.1726   22.2126  -79.2159 H         1 UNK         0.0807 
    122 H122      -81.3990   22.5721  -76.7632 H         1 UNK         0.2946 
    123 H123      -82.5220   23.7189  -75.1545 H         1 UNK         0.1144 
    124 H124      -82.0549   23.1225  -72.7639 H         1 UNK         0.0793 
    125 H125      -80.3366   23.4305  -73.0040 H         1 UNK         0.0793 
    126 H126      -81.1216   22.0956  -73.8404 H         1 UNK         0.0793 
    127 H127      -81.2314   25.6726  -73.3611 H         1 UNK         0.2896 
@<TRIPOS>BOND
     1    1    2 1    
     2    1   67 1    
     3    1   68 1    
     4    1   69 1    
     5    2    3 2    
     6    2    4 am   BACKBONE|DICT|INTERRES
     7    4    5 1    
     8    4   70 1    
     9    5    6 1    
    10    5   65 1    
    11    5   71 1    
    12    6    7 1    
    13    6   72 1    
    14    6   73 1    
    15    7    8 1    
    16    8    9 1    
    17    8   74 1    
    18    8   75 1    
    19    9   10 ar   
    20    9   14 ar   
    21   10   11 ar   
    22   10   76 1    
    23   11   12 ar   
    24   11   48 1    
    25   12   13 ar   
    26   12   77 1    
    27   13   14 ar   
    28   13   15 1    
    29   14   78 1    
    30   15   16 1    
    31   15   79 1    
    32   15   80 1    
    33   16   17 1    
    34   17   18 1    
    35   17   81 1    
    36   17   82 1    
    37   18   19 1    
    38   18   22 1    
    39   18   83 1    
    40   19   20 am   BACKBONE|DICT|INTERRES
    41   19   21 2    
    42   20   84 1    
    43   20   85 1    
    44   22   23 am   BACKBONE|DICT|INTERRES
    45   22   86 1    
    46   23   24 2    
    47   23   25 1    
    48   25   26 1    
    49   25   27 1    
    50   25   87 1    
    51   26   88 1    
    52   26   89 1    
    53   26   90 1    
    54   27   28 am   BACKBONE|DICT|INTERRES
    55   27   91 1    
    56   28   29 2    
    57   28   30 1    
    58   30   31 1    
    59   30   32 1    
    60   30   92 1    
    61   31   93 1    
    62   31   94 1    
    63   31   95 1    
    64   32   33 am   BACKBONE|DICT|INTERRES
    65   32   96 1    
    66   33   34 2    
    67   33   35 1    
    68   35   36 1    
    69   35   37 1    
    70   35   97 1    
    71   36   98 1    
    72   36   99 1    
    73   36  100 1    
    74   37   38 am   BACKBONE|DICT|INTERRES
    75   37  101 1    
    76   38   39 2    
    77   38   40 1    
    78   40   41 1    
    79   40   42 1    
    80   40  102 1    
    81   41  103 1    
    82   41  104 1    
    83   41  105 1    
    84   42   43 am   BACKBONE|DICT|INTERRES
    85   42  106 1    
    86   43   44 2    
    87   43   45 1    
    88   45   46 1    
    89   45   49 1    
    90   45  107 1    
    91   46   47 1    
    92   46  108 1    
    93   46  109 1    
    94   47   48 1    
    95   48  110 1    
    96   48  111 1    
    97   49   50 am   BACKBONE|DICT|INTERRES
    98   49  112 1    
    99   50   51 2    
   100   50   52 1    
   101   52   53 1    
   102   52   54 1    
   103   52  113 1    
   104   53  114 1    
   105   53  115 1    
   106   53  116 1    
   107   54   55 am   BACKBONE|DICT|INTERRES
   108   54  117 1    
   109   55   56 2    
   110   55   57 1    
   111   57   58 1    
   112   57   59 1    
   113   57  118 1    
   114   58  119 1    
   115   58  120 1    
   116   58  121 1    
   117   59   60 am   BACKBONE|DICT|INTERRES
   118   59  122 1    
   119   60   61 2    
   120   60   62 1    
   121   62   63 1    
   122   62   64 1    
   123   62  123 1    
   124   63  124 1    
   125   63  125 1    
   126   63  126 1    
   127   64   65 am   BACKBONE|DICT|INTERRES
   128   64  127 1    
   129   65   66 2    
@<TRIPOS>SUBSTRUCTURE
     1 UNK         1 GROUP             0       ****    0 ROOT    
