@<TRIPOS>MOLECULE
3R135
127   129    1
SMALL
USER_CHARGES


@<TRIPOS>ATOM
      1 CA        -79.4767   31.9818  -75.0289 C.3       0 UNK        -0.1998 
      2 C         -78.6063   30.7595  -74.7782 C.2       0 UNK         0.4909 
      3 O         -77.4089   30.8003  -75.0528 O.2       0 UNK        -0.5240 
      4 N         -79.2058   29.6808  -74.2567 N.am      1 UNK        -0.4739 
      5 CA        -78.5496   28.4088  -73.9203 C.3       1 UNK         0.0864 
      6 C6        -79.5180   27.4566  -73.1688 C.3       11 UNK        -0.0881 
      7 S7        -80.2435   28.2155  -71.6718 S.3       11 UNK        -0.2682 
      8 C8        -79.5516   27.1987  -70.3256 C.3       11 UNK         0.0289 
      9 C9        -78.0321   27.1267  -70.3720 C.ar      11 UNK        -0.0687 
     10 C10       -77.3935   25.8912  -70.5024 C.ar      11 UNK        -0.0823 
     11 C11       -76.0010   25.8173  -70.6009 C.ar      11 UNK        -0.0830 
     12 C12       -75.2445   26.9935  -70.5592 C.ar      11 UNK        -0.1021 
     13 C13       -75.8737   28.2360  -70.4240 C.ar      11 UNK        -0.0753 
     14 C14       -77.2654   28.2929  -70.3109 C.ar      11 UNK        -0.0933 
     15 C15       -75.0647   29.5241  -70.4174 C.3       11 UNK         0.0166 
     16 S16       -75.3740   30.4939  -71.9262 S.3       11 UNK        -0.2615 
     17 C17       -74.3639   31.9746  -71.6004 C.3       11 UNK        -0.0865 
     18 CA        -74.0600   32.7859  -72.8881 C.3       10 UNK         0.0862 
     19 C         -73.3712   34.1358  -72.5263 C.2       10 UNK         0.5551 
     20 N         -72.1123   34.3599  -72.8835 N.am      10 UNK        -0.7319 
     21 O         -73.9953   34.9954  -71.9092 O.2       10 UNK        -0.5018 
     22 N         -73.3505   31.9714  -73.8916 N.am      10 UNK        -0.4509 
     23 C         -73.2044   32.2927  -75.1849 C.2       10 UNK         0.4899 
     24 O         -73.6687   33.3120  -75.6964 O.2       10 UNK        -0.4839 
     25 CA        -72.3832   31.3279  -76.0592 C.3       9 UNK         0.0222 
     26 CB        -70.9260   31.8092  -76.1593 C.3       9 UNK        -0.1966 
     27 N         -72.4033   29.9491  -75.5612 N.am      9 UNK        -0.4218 
     28 C         -73.3925   29.0771  -75.7956 C.2       9 UNK         0.5020 
     29 O         -74.3712   29.3191  -76.5059 O.2       9 UNK        -0.5274 
     30 CA        -73.2540   27.7117  -75.1090 C.3       8 UNK         0.0270 
     31 CB        -73.7266   27.7880  -73.6495 C.3       8 UNK        -0.1976 
     32 N         -74.0539   26.7073  -75.8085 N.am      8 UNK        -0.4313 
     33 C         -73.5461   25.7684  -76.6133 C.2       8 UNK         0.5041 
     34 O         -72.3393   25.6245  -76.8347 O.2       8 UNK        -0.5577 
     35 CA        -74.5381   24.8208  -77.2951 C.3       7 UNK         0.0284 
     36 CB        -74.9428   25.3460  -78.6838 C.3       7 UNK        -0.1958 
     37 N         -73.8728   23.5234  -77.4172 N.am      7 UNK        -0.4454 
     38 C         -74.3834   22.2844  -77.4596 C.2       7 UNK         0.5089 
     39 O         -73.6453   21.3031  -77.5456 O.2       7 UNK        -0.5125 
     40 CA        -75.9141   22.0726  -77.3906 C.3       6 UNK         0.0408 
     41 CB        -76.3344   20.6090  -77.6389 C.3       6 UNK        -0.1791 
     42 N         -76.5008   22.5601  -76.1416 N.am      6 UNK        -0.4762 
     43 C         -76.1932   22.2251  -74.8789 C.2       6 UNK         0.5007 
     44 O         -75.4084   21.3283  -74.5691 O.2       6 UNK        -0.5032 
     45 CA        -76.9020   23.0357  -73.7753 C.3       5 UNK         0.0783 
     46 C46       -76.1669   24.3679  -73.4891 C.3       11 UNK        -0.0857 
     47 S47       -74.6826   24.1794  -72.4451 S.3       11 UNK        -0.2512 
     48 C48       -75.3248   24.4614  -70.7612 C.3       11 UNK         0.0225 
     49 N         -78.2937   23.2883  -74.1584 N.am      5 UNK        -0.4615 
     50 C         -79.3493   22.5908  -73.7213 C.2       4 UNK         0.5053 
     51 O         -79.2789   21.7016  -72.8728 O.2       4 UNK        -0.5105 
     52 CA        -80.7231   22.9387  -74.3276 C.3       4 UNK         0.0263 
     53 CB        -81.4696   23.9361  -73.4273 C.3       4 UNK        -0.1981 
     54 N         -80.6385   23.4772  -75.6895 N.am      4 UNK        -0.4224 
     55 C         -80.2840   22.7598  -76.7658 C.2       3 UNK         0.4895 
     56 O         -80.0774   21.5464  -76.7371 O.2       3 UNK        -0.5091 
     57 CA        -80.1104   23.5111  -78.1013 C.3       3 UNK         0.0250 
     58 CB        -81.3595   23.3310  -78.9794 C.3       3 UNK        -0.1996 
     59 N         -79.7975   24.9451  -78.0029 N.am      3 UNK        -0.4254 
     60 C         -78.7567   25.4805  -77.3489 C.2       2 UNK         0.5004 
     61 O         -78.0053   24.8194  -76.6338 O.2       2 UNK        -0.5226 
     62 CA        -78.5103   26.9941  -77.5003 C.3       2 UNK         0.0269 
     63 CB        -79.3257   27.6557  -78.6296 C.3       2 UNK        -0.1926 
     64 N         -78.7842   27.6904  -76.2450 N.am      2 UNK        -0.4687 
     65 C         -77.9849   27.6971  -75.1676 C.2       1 UNK         0.5165 
     66 O         -76.8679   27.1788  -75.1341 O.2       1 UNK        -0.5079 
     67 H67       -79.0978   32.8330  -74.4638 H         1 UNK         0.0900 
     68 H68       -79.4625   32.2415  -76.0871 H         1 UNK         0.0900 
     69 H69       -80.5125   31.8136  -74.7344 H         1 UNK         0.0900 
     70 H70       -80.1872   29.7294  -74.0223 H         1 UNK         0.2959 
     71 H71       -77.7030   28.6340  -73.2669 H         1 UNK         0.1079 
     72 H72       -79.0108   26.5278  -72.9016 H         1 UNK         0.0837 
     73 H73       -80.3465   27.1684  -73.8181 H         1 UNK         0.0837 
     74 H74       -79.9919   26.2017  -70.3802 H         1 UNK         0.0685 
     75 H75       -79.8597   27.6206  -69.3682 H         1 UNK         0.0685 
     76 H76       -77.9825   24.9852  -70.5491 H         1 UNK         0.1434 
     77 H77       -74.1682   26.9393  -70.6491 H         1 UNK         0.1329 
     78 H78       -77.7561   29.2522  -70.2173 H         1 UNK         0.1335 
     79 H79       -73.9978   29.3098  -70.3385 H         1 UNK         0.0680 
     80 H80       -75.3333   30.1169  -69.5417 H         1 UNK         0.0680 
     81 H81       -74.9054   32.5880  -70.8772 H         1 UNK         0.1032 
     82 H82       -73.4335   31.6774  -71.1129 H         1 UNK         0.1032 
     83 H83       -75.0199   33.0575  -73.3322 H         1 UNK         0.0461 
     84 H84       -71.5944   33.6619  -73.3916 H         1 UNK         0.3453 
     85 H85       -71.6793   35.2384  -72.6454 H         1 UNK         0.3453 
     86 H86       -72.9546   31.1069  -73.5581 H         1 UNK         0.2984 
     87 H87       -72.8116   31.3474  -77.0637 H         1 UNK         0.0554 
     88 H88       -70.8777   32.8282  -76.5466 H         1 UNK         0.0847 
     89 H89       -70.3466   31.1813  -76.8365 H         1 UNK         0.0847 
     90 H90       -70.4276   31.8060  -75.1892 H         1 UNK         0.0847 
     91 H91       -71.6243   29.6600  -74.9864 H         1 UNK         0.3141 
     92 H92       -72.1987   27.4307  -75.1112 H         1 UNK         0.0743 
     93 H93       -74.7864   28.0368  -73.5806 H         1 UNK         0.0784 
     94 H94       -73.5757   26.8373  -73.1404 H         1 UNK         0.0784 
     95 H95       -73.1749   28.5427  -73.0885 H         1 UNK         0.0784 
     96 H96       -75.0626   26.8175  -75.7136 H         1 UNK         0.3213 
     97 H97       -75.4187   24.7606  -76.6633 H         1 UNK         0.0855 
     98 H98       -74.0916   25.3737  -79.3651 H         1 UNK         0.0814 
     99 H99       -75.3355   26.3610  -78.6174 H         1 UNK         0.0814 
    100 H100      -75.7171   24.7299  -79.1394 H         1 UNK         0.0814 
    101 H101      -72.8646   23.6222  -77.4050 H         1 UNK         0.3105 
    102 H102      -76.3522   22.6711  -78.1894 H         1 UNK         0.0547 
    103 H103      -77.4196   20.5049  -77.6396 H         1 UNK         0.0837 
    104 H104      -75.9349   19.9363  -76.8794 H         1 UNK         0.0837 
    105 H105      -75.9739   20.2583  -78.6065 H         1 UNK         0.0837 
    106 H106      -77.1362   23.3471  -76.2688 H         1 UNK         0.3020 
    107 H107      -76.8834   22.4323  -72.8646 H         1 UNK         0.1245 
    108 H108      -76.8450   25.0777  -73.0190 H         1 UNK         0.0781 
    109 H109      -75.8659   24.8563  -74.4146 H         1 UNK         0.0781 
    110 H110      -74.4977   24.3878  -70.0537 H         1 UNK         0.0836 
    111 H111      -76.0125   23.6537  -70.5058 H         1 UNK         0.0836 
    112 H112      -78.4308   23.9707  -74.8965 H         1 UNK         0.3022 
    113 H113      -81.3059   22.0158  -74.3663 H         1 UNK         0.0747 
    114 H114      -82.4677   24.1492  -73.8105 H         1 UNK         0.0793 
    115 H115      -81.5901   23.5355  -72.4198 H         1 UNK         0.0793 
    116 H116      -80.9339   24.8802  -73.3373 H         1 UNK         0.0793 
    117 H117      -80.8058   24.4654  -75.8076 H         1 UNK         0.3047 
    118 H118      -79.2677   23.0402  -78.6121 H         1 UNK         0.0822 
    119 H119      -81.2068   23.7401  -79.9783 H         1 UNK         0.0807 
    120 H120      -82.2320   23.8199  -78.5442 H         1 UNK         0.0807 
    121 H121      -81.6047   22.2746  -79.1004 H         1 UNK         0.0807 
    122 H122      -80.3773   25.5643  -78.5508 H         1 UNK         0.2946 
    123 H123      -77.4516   27.1157  -77.7374 H         1 UNK         0.1144 
    124 H124      -80.3991   27.6298  -78.4374 H         1 UNK         0.0793 
    125 H125      -79.1426   27.1685  -79.5886 H         1 UNK         0.0793 
    126 H126      -79.0415   28.7015  -78.7499 H         1 UNK         0.0793 
    127 H127      -79.6745   28.1606  -76.1728 H         1 UNK         0.2896 
@<TRIPOS>BOND
     1    1    2 1    
     2    1   67 1    
     3    1   68 1    
     4    1   69 1    
     5    2    3 2    
     6    2    4 am   BACKBONE|DICT|INTERRES
     7    4    5 1    
     8    4   70 1    
     9    5    6 1    
    10    5   65 1    
    11    5   71 1    
    12    6    7 1    
    13    6   72 1    
    14    6   73 1    
    15    7    8 1    
    16    8    9 1    
    17    8   74 1    
    18    8   75 1    
    19    9   10 ar   
    20    9   14 ar   
    21   10   11 ar   
    22   10   76 1    
    23   11   12 ar   
    24   11   48 1    
    25   12   13 ar   
    26   12   77 1    
    27   13   14 ar   
    28   13   15 1    
    29   14   78 1    
    30   15   16 1    
    31   15   79 1    
    32   15   80 1    
    33   16   17 1    
    34   17   18 1    
    35   17   81 1    
    36   17   82 1    
    37   18   19 1    
    38   18   22 1    
    39   18   83 1    
    40   19   20 am   BACKBONE|DICT|INTERRES
    41   19   21 2    
    42   20   84 1    
    43   20   85 1    
    44   22   23 am   BACKBONE|DICT|INTERRES
    45   22   86 1    
    46   23   24 2    
    47   23   25 1    
    48   25   26 1    
    49   25   27 1    
    50   25   87 1    
    51   26   88 1    
    52   26   89 1    
    53   26   90 1    
    54   27   28 am   BACKBONE|DICT|INTERRES
    55   27   91 1    
    56   28   29 2    
    57   28   30 1    
    58   30   31 1    
    59   30   32 1    
    60   30   92 1    
    61   31   93 1    
    62   31   94 1    
    63   31   95 1    
    64   32   33 am   BACKBONE|DICT|INTERRES
    65   32   96 1    
    66   33   34 2    
    67   33   35 1    
    68   35   36 1    
    69   35   37 1    
    70   35   97 1    
    71   36   98 1    
    72   36   99 1    
    73   36  100 1    
    74   37   38 am   BACKBONE|DICT|INTERRES
    75   37  101 1    
    76   38   39 2    
    77   38   40 1    
    78   40   41 1    
    79   40   42 1    
    80   40  102 1    
    81   41  103 1    
    82   41  104 1    
    83   41  105 1    
    84   42   43 am   BACKBONE|DICT|INTERRES
    85   42  106 1    
    86   43   44 2    
    87   43   45 1    
    88   45   46 1    
    89   45   49 1    
    90   45  107 1    
    91   46   47 1    
    92   46  108 1    
    93   46  109 1    
    94   47   48 1    
    95   48  110 1    
    96   48  111 1    
    97   49   50 am   BACKBONE|DICT|INTERRES
    98   49  112 1    
    99   50   51 2    
   100   50   52 1    
   101   52   53 1    
   102   52   54 1    
   103   52  113 1    
   104   53  114 1    
   105   53  115 1    
   106   53  116 1    
   107   54   55 am   BACKBONE|DICT|INTERRES
   108   54  117 1    
   109   55   56 2    
   110   55   57 1    
   111   57   58 1    
   112   57   59 1    
   113   57  118 1    
   114   58  119 1    
   115   58  120 1    
   116   58  121 1    
   117   59   60 am   BACKBONE|DICT|INTERRES
   118   59  122 1    
   119   60   61 2    
   120   60   62 1    
   121   62   63 1    
   122   62   64 1    
   123   62  123 1    
   124   63  124 1    
   125   63  125 1    
   126   63  126 1    
   127   64   65 am   BACKBONE|DICT|INTERRES
   128   64  127 1    
   129   65   66 2    
@<TRIPOS>SUBSTRUCTURE
     1 UNK         1 GROUP             0       ****    0 ROOT    
