@<TRIPOS>MOLECULE
3R135
127   129    1
SMALL
USER_CHARGES


@<TRIPOS>ATOM
      1 CA        -80.4218   29.6648  -76.3570 C.3       0 UNK        -0.1998 
      2 C         -80.3168   28.8142  -75.1008 C.2       0 UNK         0.4909 
      3 O         -79.2825   28.1918  -74.8655 O.2       0 UNK        -0.5240 
      4 N         -81.3810   28.7775  -74.2900 N.am      1 UNK        -0.4739 
      5 CA        -81.4367   28.0407  -73.0227 C.3       1 UNK         0.0864 
      6 C6        -82.3475   28.7369  -71.9728 C.3       11 UNK        -0.0881 
      7 S7        -81.9699   30.5117  -71.7339 S.3       11 UNK        -0.2682 
      8 C8        -80.7420   30.4909  -70.3868 C.3       11 UNK         0.0289 
      9 C9        -79.4325   29.8526  -70.8263 C.ar      11 UNK        -0.0687 
     10 C10       -79.0700   28.5907  -70.3453 C.ar      11 UNK        -0.0823 
     11 C11       -77.9021   27.9645  -70.7903 C.ar      11 UNK        -0.0830 
     12 C12       -77.0835   28.6340  -71.7086 C.ar      11 UNK        -0.1021 
     13 C13       -77.4191   29.9033  -72.1801 C.ar      11 UNK        -0.0753 
     14 C14       -78.5962   30.5107  -71.7344 C.ar      11 UNK        -0.0933 
     15 C15       -76.5240   30.5938  -73.1990 C.3       11 UNK         0.0166 
     16 S16       -75.3342   31.7287  -72.4139 S.3       11 UNK        -0.2615 
     17 C17       -74.1326   30.5915  -71.6334 C.3       11 UNK        -0.0865 
     18 CA        -72.7972   30.5018  -72.4137 C.3       10 UNK         0.0862 
     19 C         -71.7417   29.6935  -71.6145 C.2       10 UNK         0.5551 
     20 N         -70.8966   30.3664  -70.8460 N.am      10 UNK        -0.7319 
     21 O         -71.7125   28.4648  -71.6505 O.2       10 UNK        -0.5018 
     22 N         -72.9869   29.9348  -73.7552 N.am      10 UNK        -0.4509 
     23 C         -72.1877   30.1872  -74.7966 C.2       10 UNK         0.4899 
     24 O         -71.2347   30.9684  -74.7626 O.2       10 UNK        -0.4839 
     25 CA        -72.5307   29.4336  -76.0909 C.3       9 UNK         0.0222 
     26 CB        -71.7054   29.9016  -77.3084 C.3       9 UNK        -0.1966 
     27 N         -72.4411   27.9811  -75.9228 N.am      9 UNK        -0.4218 
     28 C         -71.3564   27.2402  -75.6475 C.2       9 UNK         0.5020 
     29 O         -70.2335   27.6986  -75.4329 O.2       9 UNK        -0.5274 
     30 CA        -71.5509   25.7106  -75.6472 C.3       8 UNK         0.0270 
     31 CB        -71.8747   25.2053  -74.2319 C.3       8 UNK        -0.1976 
     32 N         -72.5895   25.2639  -76.5840 N.am      8 UNK        -0.4313 
     33 C         -72.5047   25.3662  -77.9199 C.2       8 UNK         0.5041 
     34 O         -71.4908   25.7329  -78.5155 O.2       8 UNK        -0.5577 
     35 CA        -73.7725   25.0420  -78.7304 C.3       7 UNK         0.0284 
     36 CB        -73.8894   23.5324  -78.9930 C.3       7 UNK        -0.1958 
     37 N         -74.9942   25.5394  -78.0897 N.am      7 UNK        -0.4454 
     38 C         -75.2909   26.8391  -77.9307 C.2       7 UNK         0.5089 
     39 O         -74.6065   27.7590  -78.3768 O.2       7 UNK        -0.5125 
     40 CA        -76.5421   27.1740  -77.1036 C.3       6 UNK         0.0408 
     41 CB        -77.8011   27.1009  -77.9814 C.3       6 UNK        -0.1791 
     42 N         -76.6965   26.2861  -75.9525 N.am      6 UNK        -0.4762 
     43 C         -75.8770   26.2270  -74.8942 C.2       6 UNK         0.5007 
     44 O         -74.9302   26.9963  -74.7232 O.2       6 UNK        -0.5032 
     45 CA        -76.1102   25.0616  -73.9079 C.3       5 UNK         0.0783 
     46 C46       -77.1245   25.4047  -72.7845 C.3       11 UNK        -0.0857 
     47 S47       -76.2919   25.6531  -71.1821 S.3       11 UNK        -0.2512 
     48 C48       -77.5708   26.5701  -70.2557 C.3       11 UNK         0.0225 
     49 N         -76.5007   23.8400  -74.6133 N.am      5 UNK        -0.4615 
     50 C         -75.6721   23.0739  -75.3301 C.2       4 UNK         0.5053 
     51 O         -74.4760   23.3204  -75.4786 O.2       4 UNK        -0.5105 
     52 CA        -76.2878   21.8378  -76.0083 C.3       4 UNK         0.0263 
     53 CB        -76.2220   20.6234  -75.0691 C.3       4 UNK        -0.1981 
     54 N         -77.6751   22.0530  -76.4330 N.am      4 UNK        -0.4224 
     55 C         -78.0296   22.8605  -77.4420 C.2       3 UNK         0.4895 
     56 O         -77.2226   23.4813  -78.1348 O.2       3 UNK        -0.5091 
     57 CA        -79.5395   23.0431  -77.6876 C.3       3 UNK         0.0250 
     58 CB        -80.1132   21.8412  -78.4555 C.3       3 UNK        -0.1996 
     59 N         -80.3397   23.2862  -76.4760 N.am      3 UNK        -0.4254 
     60 C         -80.1074   24.2692  -75.5951 C.2       2 UNK         0.5004 
     61 O         -79.1168   24.9978  -75.6406 O.2       2 UNK        -0.5226 
     62 CA        -81.1216   24.4763  -74.4641 C.3       2 UNK         0.0269 
     63 CB        -80.9100   23.4580  -73.3288 C.3       2 UNK        -0.1926 
     64 N         -80.9447   25.8401  -73.9673 N.am      2 UNK        -0.4687 
     65 C         -81.8305   26.5704  -73.2841 C.2       1 UNK         0.5165 
     66 O         -82.9236   26.1395  -72.9117 O.2       1 UNK        -0.5079 
     67 H67       -81.2869   30.3269  -76.3266 H         1 UNK         0.0900 
     68 H68       -79.5292   30.2802  -76.4676 H         1 UNK         0.0900 
     69 H69       -80.5091   29.0278  -77.2364 H         1 UNK         0.0900 
     70 H70       -82.2142   29.2949  -74.5307 H         1 UNK         0.2959 
     71 H71       -80.4303   28.0079  -72.6051 H         1 UNK         0.1079 
     72 H72       -82.2806   28.2245  -71.0113 H         1 UNK         0.0837 
     73 H73       -83.3941   28.6711  -72.2761 H         1 UNK         0.0837 
     74 H74       -80.5503   31.5167  -70.0690 H         1 UNK         0.0685 
     75 H75       -81.1613   29.9756  -69.5212 H         1 UNK         0.0685 
     76 H76       -79.7138   28.0818  -69.6406 H         1 UNK         0.1434 
     77 H77       -76.1822   28.1691  -72.0788 H         1 UNK         0.1329 
     78 H78       -78.8739   31.4858  -72.1106 H         1 UNK         0.1335 
     79 H79       -75.9897   29.8577  -73.8022 H         1 UNK         0.0680 
     80 H80       -77.1414   31.1614  -73.8969 H         1 UNK         0.0680 
     81 H81       -73.9511   30.9678  -70.6247 H         1 UNK         0.1032 
     82 H82       -74.5626   29.6007  -71.5002 H         1 UNK         0.1032 
     83 H83       -72.4213   31.5213  -72.5267 H         1 UNK         0.0461 
     84 H84       -70.2140   29.8575  -70.3063 H         1 UNK         0.3453 
     85 H85       -70.9186   31.3736  -70.8031 H         1 UNK         0.3453 
     86 H86       -73.7020   29.2276  -73.8495 H         1 UNK         0.2984 
     87 H87       -73.5783   29.6484  -76.3081 H         1 UNK         0.0554 
     88 H88       -72.0077   29.3748  -78.2138 H         1 UNK         0.0847 
     89 H89       -70.6368   29.7379  -77.1663 H         1 UNK         0.0847 
     90 H90       -71.8492   30.9674  -77.4891 H         1 UNK         0.0847 
     91 H91       -73.3259   27.4894  -75.9792 H         1 UNK         0.3141 
     92 H92       -70.6074   25.2589  -75.9605 H         1 UNK         0.0743 
     93 H93       -72.7976   25.6388  -73.8474 H         1 UNK         0.0784 
     94 H94       -71.9777   24.1202  -74.2097 H         1 UNK         0.0784 
     95 H95       -71.0795   25.4714  -73.5341 H         1 UNK         0.0784 
     96 H96       -73.4228   24.8442  -76.1819 H         1 UNK         0.3213 
     97 H97       -73.6814   25.5437  -79.6963 H         1 UNK         0.0855 
     98 H98       -73.9638   22.9623  -78.0678 H         1 UNK         0.0814 
     99 H99       -73.0149   23.1639  -79.5308 H         1 UNK         0.0814 
    100 H100      -74.7647   23.3012  -79.6004 H         1 UNK         0.0814 
    101 H101      -75.6592   24.8475  -77.7608 H         1 UNK         0.3105 
    102 H102      -76.4429   28.1942  -76.7271 H         1 UNK         0.0547 
    103 H103      -77.7433   27.8112  -78.8069 H         1 UNK         0.0837 
    104 H104      -77.9388   26.1083  -78.4109 H         1 UNK         0.0837 
    105 H105      -78.6962   27.3375  -77.4082 H         1 UNK         0.0837 
    106 H106      -77.5173   25.6805  -75.9545 H         1 UNK         0.3020 
    107 H107      -75.1371   24.8554  -73.4556 H         1 UNK         0.1245 
    108 H108      -77.8351   24.5917  -72.6352 H         1 UNK         0.0781 
    109 H109      -77.7380   26.2712  -73.0399 H         1 UNK         0.0781 
    110 H110      -77.2382   26.6690  -69.2216 H         1 UNK         0.0836 
    111 H111      -78.4771   25.9627  -70.2322 H         1 UNK         0.0836 
    112 H112      -77.4853   23.6189  -74.6142 H         1 UNK         0.3022 
    113 H113      -75.6906   21.6144  -76.8948 H         1 UNK         0.0747 
    114 H114      -76.5848   19.7209  -75.5614 H         1 UNK         0.0793 
    115 H115      -75.1950   20.4289  -74.7562 H         1 UNK         0.0793 
    116 H116      -76.8143   20.7759  -74.1659 H         1 UNK         0.0793 
    117 H117      -78.3997   21.5798  -75.9126 H         1 UNK         0.3047 
    118 H118      -79.6496   23.9267  -78.3201 H         1 UNK         0.0822 
    119 H119      -81.1454   22.0192  -78.7577 H         1 UNK         0.0807 
    120 H120      -80.0906   20.9290  -77.8581 H         1 UNK         0.0807 
    121 H121      -79.5415   21.6496  -79.3649 H         1 UNK         0.0807 
    122 H122      -81.1641   22.7141  -76.3596 H         1 UNK         0.2946 
    123 H123      -82.1284   24.3741  -74.8751 H         1 UNK         0.1144 
    124 H124      -81.6361   23.5996  -72.5282 H         1 UNK         0.0793 
    125 H125      -79.9150   23.5381  -72.8923 H         1 UNK         0.0793 
    126 H126      -81.0275   22.4358  -73.6902 H         1 UNK         0.0793 
    127 H127      -80.1032   26.2981  -74.3132 H         1 UNK         0.2896 
@<TRIPOS>BOND
     1    1    2 1    
     2    1   67 1    
     3    1   68 1    
     4    1   69 1    
     5    2    3 2    
     6    2    4 am   BACKBONE|DICT|INTERRES
     7    4    5 1    
     8    4   70 1    
     9    5    6 1    
    10    5   65 1    
    11    5   71 1    
    12    6    7 1    
    13    6   72 1    
    14    6   73 1    
    15    7    8 1    
    16    8    9 1    
    17    8   74 1    
    18    8   75 1    
    19    9   10 ar   
    20    9   14 ar   
    21   10   11 ar   
    22   10   76 1    
    23   11   12 ar   
    24   11   48 1    
    25   12   13 ar   
    26   12   77 1    
    27   13   14 ar   
    28   13   15 1    
    29   14   78 1    
    30   15   16 1    
    31   15   79 1    
    32   15   80 1    
    33   16   17 1    
    34   17   18 1    
    35   17   81 1    
    36   17   82 1    
    37   18   19 1    
    38   18   22 1    
    39   18   83 1    
    40   19   20 am   BACKBONE|DICT|INTERRES
    41   19   21 2    
    42   20   84 1    
    43   20   85 1    
    44   22   23 am   BACKBONE|DICT|INTERRES
    45   22   86 1    
    46   23   24 2    
    47   23   25 1    
    48   25   26 1    
    49   25   27 1    
    50   25   87 1    
    51   26   88 1    
    52   26   89 1    
    53   26   90 1    
    54   27   28 am   BACKBONE|DICT|INTERRES
    55   27   91 1    
    56   28   29 2    
    57   28   30 1    
    58   30   31 1    
    59   30   32 1    
    60   30   92 1    
    61   31   93 1    
    62   31   94 1    
    63   31   95 1    
    64   32   33 am   BACKBONE|DICT|INTERRES
    65   32   96 1    
    66   33   34 2    
    67   33   35 1    
    68   35   36 1    
    69   35   37 1    
    70   35   97 1    
    71   36   98 1    
    72   36   99 1    
    73   36  100 1    
    74   37   38 am   BACKBONE|DICT|INTERRES
    75   37  101 1    
    76   38   39 2    
    77   38   40 1    
    78   40   41 1    
    79   40   42 1    
    80   40  102 1    
    81   41  103 1    
    82   41  104 1    
    83   41  105 1    
    84   42   43 am   BACKBONE|DICT|INTERRES
    85   42  106 1    
    86   43   44 2    
    87   43   45 1    
    88   45   46 1    
    89   45   49 1    
    90   45  107 1    
    91   46   47 1    
    92   46  108 1    
    93   46  109 1    
    94   47   48 1    
    95   48  110 1    
    96   48  111 1    
    97   49   50 am   BACKBONE|DICT|INTERRES
    98   49  112 1    
    99   50   51 2    
   100   50   52 1    
   101   52   53 1    
   102   52   54 1    
   103   52  113 1    
   104   53  114 1    
   105   53  115 1    
   106   53  116 1    
   107   54   55 am   BACKBONE|DICT|INTERRES
   108   54  117 1    
   109   55   56 2    
   110   55   57 1    
   111   57   58 1    
   112   57   59 1    
   113   57  118 1    
   114   58  119 1    
   115   58  120 1    
   116   58  121 1    
   117   59   60 am   BACKBONE|DICT|INTERRES
   118   59  122 1    
   119   60   61 2    
   120   60   62 1    
   121   62   63 1    
   122   62   64 1    
   123   62  123 1    
   124   63  124 1    
   125   63  125 1    
   126   63  126 1    
   127   64   65 am   BACKBONE|DICT|INTERRES
   128   64  127 1    
   129   65   66 2    
@<TRIPOS>SUBSTRUCTURE
     1 UNK         1 GROUP             0       ****    0 ROOT    
