@<TRIPOS>MOLECULE
3R135
127   129    1
SMALL
USER_CHARGES


@<TRIPOS>ATOM
      1 CA        -79.2757   30.1029  -76.3413 C.3       0 UNK        -0.1998 
      2 C         -80.2462   29.5723  -75.2974 C.2       0 UNK         0.4909 
      3 O         -81.4575   29.7204  -75.4605 O.2       0 UNK        -0.5240 
      4 N         -79.7147   28.9472  -74.2375 N.am      1 UNK        -0.4739 
      5 CA        -80.4483   28.3231  -73.1236 C.3       1 UNK         0.0864 
      6 C6        -81.1784   29.3349  -72.1983 C.3       11 UNK        -0.0881 
      7 S7        -80.0791   30.6274  -71.5195 S.3       11 UNK        -0.2682 
      8 C8        -79.6438   29.9594  -69.8799 C.3       11 UNK         0.0289 
      9 C9        -78.4404   29.0309  -69.9546 C.ar      11 UNK        -0.0687 
     10 C10       -78.6134   27.6468  -70.0551 C.ar      11 UNK        -0.0823 
     11 C11       -77.5051   26.8011  -70.1683 C.ar      11 UNK        -0.0830 
     12 C12       -76.2181   27.3436  -70.1253 C.ar      11 UNK        -0.1021 
     13 C13       -76.0318   28.7226  -70.0062 C.ar      11 UNK        -0.0753 
     14 C14       -77.1466   29.5625  -69.9270 C.ar      11 UNK        -0.0933 
     15 C15       -74.6230   29.2972  -69.9691 C.3       11 UNK         0.0166 
     16 S16       -73.7779   29.1216  -71.5717 S.3       11 UNK        -0.2615 
     17 C17       -74.7849   30.2254  -72.6196 C.3       11 UNK        -0.0865 
     18 CA        -74.0350   30.6683  -73.9024 C.3       10 UNK         0.0862 
     19 C         -74.9794   31.4704  -74.8453 C.2       10 UNK         0.5551 
     20 N         -74.6580   32.7049  -75.2137 N.am      10 UNK        -0.7319 
     21 O         -76.0161   30.9578  -75.2575 O.2       10 UNK        -0.5018 
     22 N         -72.7659   31.3513  -73.5789 N.am      10 UNK        -0.4509 
     23 C         -71.6547   31.4396  -74.3246 C.2       10 UNK         0.4899 
     24 O         -70.6688   32.0572  -73.9237 O.2       10 UNK        -0.4839 
     25 CA        -71.5714   30.7113  -75.6791 C.3       9 UNK         0.0222 
     26 CB        -70.5539   31.3652  -76.6340 C.3       9 UNK        -0.1966 
     27 N         -71.1671   29.3292  -75.4269 N.am      9 UNK        -0.4218 
     28 C         -71.8416   28.2476  -75.8309 C.2       9 UNK         0.5020 
     29 O         -72.8603   28.3001  -76.5248 O.2       9 UNK        -0.5274 
     30 CA        -71.2935   26.8903  -75.3568 C.3       8 UNK         0.0270 
     31 CB        -71.4223   26.7541  -73.8281 C.3       8 UNK        -0.1976 
     32 N         -72.0576   25.8120  -75.9802 N.am      8 UNK        -0.4313 
     33 C         -71.6441   25.0363  -76.9910 C.2       8 UNK         0.5041 
     34 O         -70.4944   25.0438  -77.4340 O.2       8 UNK        -0.5577 
     35 CA        -72.6864   24.0931  -77.6294 C.3       7 UNK         0.0284 
     36 CB        -72.5616   22.6766  -77.0463 C.3       7 UNK        -0.1958 
     37 N         -74.0614   24.5651  -77.4500 N.am      7 UNK        -0.4454 
     38 C         -74.5712   25.6591  -78.0340 C.2       7 UNK         0.5089 
     39 O         -74.0159   26.2473  -78.9629 O.2       7 UNK        -0.5125 
     40 CA        -75.9052   26.2129  -77.4888 C.3       6 UNK         0.0408 
     41 CB        -76.9997   26.1606  -78.5677 C.3       6 UNK        -0.1791 
     42 N         -76.4109   25.5645  -76.2728 N.am      6 UNK        -0.4762 
     43 C         -75.8130   25.5213  -75.0718 C.2       6 UNK         0.5007 
     44 O         -74.7113   26.0137  -74.8359 O.2       6 UNK        -0.5032 
     45 CA        -76.5563   24.7552  -73.9612 C.3       5 UNK         0.0783 
     46 C46       -77.4927   25.7214  -73.1982 C.3       11 UNK        -0.0857 
     47 S47       -78.5347   24.9076  -71.9353 S.3       11 UNK        -0.2512 
     48 C48       -77.6883   25.3032  -70.3690 C.3       11 UNK         0.0225 
     49 N         -77.2585   23.5839  -74.4983 N.am      5 UNK        -0.4615 
     50 C         -76.6579   22.4799  -74.9635 C.2       4 UNK         0.5053 
     51 O         -75.4371   22.3267  -74.9895 O.2       4 UNK        -0.5105 
     52 CA        -77.5729   21.3657  -75.4997 C.3       4 UNK         0.0263 
     53 CB        -78.0726   20.4794  -74.3474 C.3       4 UNK        -0.1981 
     54 N         -78.7194   21.8937  -76.2428 N.am      4 UNK        -0.4224 
     55 C         -78.6422   22.4393  -77.4656 C.2       3 UNK         0.4895 
     56 O         -77.6112   22.4742  -78.1370 O.2       3 UNK        -0.5091 
     57 CA        -79.9269   23.0828  -78.0240 C.3       3 UNK         0.0250 
     58 CB        -80.7403   22.0544  -78.8260 C.3       3 UNK        -0.1996 
     59 N         -80.7839   23.6942  -76.9985 N.am      3 UNK        -0.4254 
     60 C         -80.4005   24.6929  -76.1921 C.2       2 UNK         0.5004 
     61 O         -79.2755   25.2018  -76.2292 O.2       2 UNK        -0.5226 
     62 CA        -81.4091   25.1696  -75.1376 C.3       2 UNK         0.0269 
     63 CB        -81.6737   24.0602  -74.0971 C.3       2 UNK        -0.1926 
     64 N         -80.8252   26.3489  -74.5067 N.am      2 UNK        -0.4687 
     65 C         -81.3642   27.1702  -73.6008 C.2       1 UNK         0.5165 
     66 O         -82.5091   27.0492  -73.1607 O.2       1 UNK        -0.5079 
     67 H67       -79.6069   29.8239  -77.3416 H         1 UNK         0.0900 
     68 H68       -78.2705   29.7063  -76.1991 H         1 UNK         0.0900 
     69 H69       -79.2238   31.1899  -76.2878 H         1 UNK         0.0900 
     70 H70       -78.7084   28.8979  -74.1653 H         1 UNK         0.2959 
     71 H71       -79.6858   27.8334  -72.5204 H         1 UNK         0.1079 
     72 H72       -81.9807   29.8318  -72.7460 H         1 UNK         0.0837 
     73 H73       -81.6633   28.8162  -71.3697 H         1 UNK         0.0837 
     74 H74       -79.4142   30.7945  -69.2164 H         1 UNK         0.0685 
     75 H75       -80.5006   29.4516  -69.4349 H         1 UNK         0.0685 
     76 H76       -79.6103   27.2281  -70.0813 H         1 UNK         0.1434 
     77 H77       -75.3546   26.6974  -70.2080 H         1 UNK         0.1329 
     78 H78       -77.0103   30.6325  -69.8487 H         1 UNK         0.1335 
     79 H79       -74.6347   30.3486  -69.6773 H         1 UNK         0.0680 
     80 H80       -74.0437   28.7744  -69.2067 H         1 UNK         0.0680 
     81 H81       -75.0912   31.0977  -72.0388 H         1 UNK         0.1032 
     82 H82       -75.7027   29.6900  -72.8735 H         1 UNK         0.1032 
     83 H83       -73.8004   29.7516  -74.4406 H         1 UNK         0.0461 
     84 H84       -75.2767   33.2116  -75.8274 H         1 UNK         0.3453 
     85 H85       -73.8217   33.1450  -74.8641 H         1 UNK         0.3453 
     86 H86       -72.7623   31.8190  -72.6850 H         1 UNK         0.2984 
     87 H87       -72.5439   30.7615  -76.1694 H         1 UNK         0.0554 
     88 H88       -70.5507   30.8685  -77.6044 H         1 UNK         0.0847 
     89 H89       -69.5378   31.3285  -76.2392 H         1 UNK         0.0847 
     90 H90       -70.8005   32.4134  -76.8077 H         1 UNK         0.0847 
     91 H91       -70.3635   29.2094  -74.8248 H         1 UNK         0.3141 
     92 H92       -70.2397   26.8257  -75.6354 H         1 UNK         0.0743 
     93 H93       -70.8201   27.4989  -73.3070 H         1 UNK         0.0784 
     94 H94       -72.4543   26.8828  -73.4976 H         1 UNK         0.0784 
     95 H95       -71.0846   25.7746  -73.4889 H         1 UNK         0.0784 
     96 H96       -73.0430   25.7973  -75.7252 H         1 UNK         0.3213 
     97 H97       -72.4780   24.0454  -78.7004 H         1 UNK         0.0855 
     98 H98       -71.5568   22.2800  -77.1977 H         1 UNK         0.0814 
     99 H99       -73.2581   21.9870  -77.5235 H         1 UNK         0.0814 
    100 H100      -72.7598   22.6633  -75.9737 H         1 UNK         0.0814 
    101 H101      -74.6014   24.1263  -76.7167 H         1 UNK         0.3105 
    102 H102      -75.7257   27.2608  -77.2397 H         1 UNK         0.0547 
    103 H103      -76.6856   26.6816  -79.4730 H         1 UNK         0.0837 
    104 H104      -77.2370   25.1340  -78.8477 H         1 UNK         0.0837 
    105 H105      -77.9190   26.6365  -78.2256 H         1 UNK         0.0837 
    106 H106      -77.3473   25.1730  -76.3403 H         1 UNK         0.3020 
    107 H107      -75.8013   24.3937  -73.2590 H         1 UNK         0.1245 
    108 H108      -78.1643   26.2181  -73.8972 H         1 UNK         0.0781 
    109 H109      -76.9085   26.5216  -72.7428 H         1 UNK         0.0781 
    110 H110      -76.7279   24.7854  -70.3493 H         1 UNK         0.0836 
    111 H111      -78.2707   24.8993  -69.5398 H         1 UNK         0.0836 
    112 H112      -78.2642   23.6484  -74.5317 H         1 UNK         0.3022 
    113 H113      -76.9805   20.7445  -76.1752 H         1 UNK         0.0747 
    114 H114      -78.6661   19.6437  -74.7185 H         1 UNK         0.0793 
    115 H115      -77.2351   20.0574  -73.7900 H         1 UNK         0.0793 
    116 H116      -78.6853   21.0393  -73.6394 H         1 UNK         0.0793 
    117 H117      -79.6139   21.8882  -75.7756 H         1 UNK         0.3047 
    118 H118      -79.6171   23.8779  -78.7056 H         1 UNK         0.0822 
    119 H119      -81.5981   22.5187  -79.3129 H         1 UNK         0.0807 
    120 H120      -81.1088   21.2462  -78.1930 H         1 UNK         0.0807 
    121 H121      -80.1317   21.6020  -79.6106 H         1 UNK         0.0807 
    122 H122      -81.7202   23.3251  -76.9111 H         1 UNK         0.2946 
    123 H123      -82.3378   25.4558  -75.6353 H         1 UNK         0.1144 
    124 H124      -82.3696   24.3874  -73.3252 H         1 UNK         0.0793 
    125 H125      -80.7558   23.7433  -73.6017 H         1 UNK         0.0793 
    126 H126      -82.1152   23.1777  -74.5610 H         1 UNK         0.0793 
    127 H127      -79.8985   26.5519  -74.8628 H         1 UNK         0.2896 
@<TRIPOS>BOND
     1    1    2 1    
     2    1   67 1    
     3    1   68 1    
     4    1   69 1    
     5    2    3 2    
     6    2    4 am   BACKBONE|DICT|INTERRES
     7    4    5 1    
     8    4   70 1    
     9    5    6 1    
    10    5   65 1    
    11    5   71 1    
    12    6    7 1    
    13    6   72 1    
    14    6   73 1    
    15    7    8 1    
    16    8    9 1    
    17    8   74 1    
    18    8   75 1    
    19    9   10 ar   
    20    9   14 ar   
    21   10   11 ar   
    22   10   76 1    
    23   11   12 ar   
    24   11   48 1    
    25   12   13 ar   
    26   12   77 1    
    27   13   14 ar   
    28   13   15 1    
    29   14   78 1    
    30   15   16 1    
    31   15   79 1    
    32   15   80 1    
    33   16   17 1    
    34   17   18 1    
    35   17   81 1    
    36   17   82 1    
    37   18   19 1    
    38   18   22 1    
    39   18   83 1    
    40   19   20 am   BACKBONE|DICT|INTERRES
    41   19   21 2    
    42   20   84 1    
    43   20   85 1    
    44   22   23 am   BACKBONE|DICT|INTERRES
    45   22   86 1    
    46   23   24 2    
    47   23   25 1    
    48   25   26 1    
    49   25   27 1    
    50   25   87 1    
    51   26   88 1    
    52   26   89 1    
    53   26   90 1    
    54   27   28 am   BACKBONE|DICT|INTERRES
    55   27   91 1    
    56   28   29 2    
    57   28   30 1    
    58   30   31 1    
    59   30   32 1    
    60   30   92 1    
    61   31   93 1    
    62   31   94 1    
    63   31   95 1    
    64   32   33 am   BACKBONE|DICT|INTERRES
    65   32   96 1    
    66   33   34 2    
    67   33   35 1    
    68   35   36 1    
    69   35   37 1    
    70   35   97 1    
    71   36   98 1    
    72   36   99 1    
    73   36  100 1    
    74   37   38 am   BACKBONE|DICT|INTERRES
    75   37  101 1    
    76   38   39 2    
    77   38   40 1    
    78   40   41 1    
    79   40   42 1    
    80   40  102 1    
    81   41  103 1    
    82   41  104 1    
    83   41  105 1    
    84   42   43 am   BACKBONE|DICT|INTERRES
    85   42  106 1    
    86   43   44 2    
    87   43   45 1    
    88   45   46 1    
    89   45   49 1    
    90   45  107 1    
    91   46   47 1    
    92   46  108 1    
    93   46  109 1    
    94   47   48 1    
    95   48  110 1    
    96   48  111 1    
    97   49   50 am   BACKBONE|DICT|INTERRES
    98   49  112 1    
    99   50   51 2    
   100   50   52 1    
   101   52   53 1    
   102   52   54 1    
   103   52  113 1    
   104   53  114 1    
   105   53  115 1    
   106   53  116 1    
   107   54   55 am   BACKBONE|DICT|INTERRES
   108   54  117 1    
   109   55   56 2    
   110   55   57 1    
   111   57   58 1    
   112   57   59 1    
   113   57  118 1    
   114   58  119 1    
   115   58  120 1    
   116   58  121 1    
   117   59   60 am   BACKBONE|DICT|INTERRES
   118   59  122 1    
   119   60   61 2    
   120   60   62 1    
   121   62   63 1    
   122   62   64 1    
   123   62  123 1    
   124   63  124 1    
   125   63  125 1    
   126   63  126 1    
   127   64   65 am   BACKBONE|DICT|INTERRES
   128   64  127 1    
   129   65   66 2    
@<TRIPOS>SUBSTRUCTURE
     1 UNK         1 GROUP             0       ****    0 ROOT    
