@<TRIPOS>MOLECULE
3R135
127   129    1
SMALL
USER_CHARGES


@<TRIPOS>ATOM
      1 CA        -84.4235   26.6480  -72.1020 C.3       0 UNK        -0.1998 
      2 C         -83.0833   27.3512  -72.2527 C.2       0 UNK         0.4909 
      3 O         -83.0456   28.5353  -72.5906 O.2       0 UNK        -0.5240 
      4 N         -81.9796   26.6325  -72.0127 N.am      1 UNK        -0.4739 
      5 CA        -80.6009   27.1278  -72.1051 C.3       1 UNK         0.0864 
      6 C6        -79.6424   26.2991  -71.2177 C.3       11 UNK        -0.0881 
      7 S7        -79.9524   26.4837  -69.4251 S.3       11 UNK        -0.2682 
      8 C8        -79.0848   28.0194  -68.9146 C.3       11 UNK         0.0289 
      9 C9        -78.0153   28.5045  -69.8863 C.ar      11 UNK        -0.0687 
     10 C10       -76.7823   27.8489  -69.9723 C.ar      11 UNK        -0.0823 
     11 C11       -75.8381   28.2396  -70.9284 C.ar      11 UNK        -0.0830 
     12 C12       -76.1084   29.3361  -71.7528 C.ar      11 UNK        -0.1021 
     13 C13       -77.3290   30.0112  -71.6636 C.ar      11 UNK        -0.0753 
     14 C14       -78.2783   29.5884  -70.7293 C.ar      11 UNK        -0.0933 
     15 C15       -77.6300   31.1960  -72.5713 C.3       11 UNK         0.0166 
     16 S16       -77.9685   30.6822  -74.2877 S.3       11 UNK        -0.2615 
     17 C17       -76.2977   30.6898  -75.0252 C.3       11 UNK        -0.0865 
     18 CA        -75.8392   29.2915  -75.5367 C.3       10 UNK         0.0862 
     19 C         -76.2944   29.0589  -77.0073 C.2       10 UNK         0.5551 
     20 N         -75.4972   29.4170  -78.0027 N.am      10 UNK        -0.7319 
     21 O         -77.3751   28.5288  -77.2466 O.2       10 UNK        -0.5018 
     22 N         -74.4098   29.0349  -75.2562 N.am      10 UNK        -0.4509 
     23 C         -73.3660   29.7725  -75.6611 C.2       10 UNK         0.4899 
     24 O         -73.4655   30.7171  -76.4441 O.2       10 UNK        -0.4839 
     25 CA        -71.9833   29.4618  -75.0684 C.3       9 UNK         0.0222 
     26 CB        -71.7598   30.3548  -73.8286 C.3       9 UNK        -0.1966 
     27 N         -71.7631   28.0482  -74.7327 N.am      9 UNK        -0.4218 
     28 C         -70.5550   27.5309  -74.4541 C.2       9 UNK         0.5020 
     29 O         -69.5032   28.1690  -74.5228 O.2       9 UNK        -0.5274 
     30 CA        -70.4941   26.0615  -74.0154 C.3       8 UNK         0.0270 
     31 CB        -71.1310   25.8738  -72.6289 C.3       8 UNK        -0.1976 
     32 N         -71.1580   25.1964  -74.9866 N.am      8 UNK        -0.4313 
     33 C         -70.5273   24.4709  -75.9216 C.2       8 UNK         0.5041 
     34 O         -69.3020   24.4083  -76.0328 O.2       8 UNK        -0.5577 
     35 CA        -71.4044   23.6714  -76.9055 C.3       7 UNK         0.0284 
     36 CB        -71.5321   22.2097  -76.4462 C.3       7 UNK        -0.1958 
     37 N         -72.7426   24.2408  -77.0743 N.am      7 UNK        -0.4454 
     38 C         -72.9975   25.4220  -77.6529 C.2       7 UNK         0.5089 
     39 O         -72.1458   26.1030  -78.2238 O.2       7 UNK        -0.5125 
     40 CA        -74.4318   25.9612  -77.5330 C.3       6 UNK         0.0408 
     41 CB        -75.1962   25.7707  -78.8502 C.3       6 UNK        -0.1791 
     42 N         -75.2071   25.3948  -76.4195 N.am      6 UNK        -0.4762 
     43 C         -74.9199   25.5609  -75.1179 C.2       6 UNK         0.5007 
     44 O         -73.9455   26.2138  -74.7342 O.2       6 UNK        -0.5032 
     45 CA        -75.8520   24.9012  -74.0789 C.3       5 UNK         0.0783 
     46 C46       -76.1100   25.8051  -72.8516 C.3       11 UNK        -0.0857 
     47 S47       -74.8448   25.6961  -71.5402 S.3       11 UNK        -0.2512 
     48 C48       -74.5471   27.4497  -71.1177 C.3       11 UNK         0.0225 
     49 N         -77.1298   24.4938  -74.6721 N.am      5 UNK        -0.4615 
     50 C         -77.4346   23.2549  -75.0743 C.2       4 UNK         0.5053 
     51 O         -76.6466   22.3101  -75.0438 O.2       4 UNK        -0.5105 
     52 CA        -78.8561   23.0425  -75.6218 C.3       4 UNK         0.0263 
     53 CB        -79.8596   22.8755  -74.4690 C.3       4 UNK        -0.1981 
     54 N         -79.2992   24.1307  -76.4963 N.am      4 UNK        -0.4224 
     55 C         -78.7506   24.4469  -77.6764 C.2       3 UNK         0.4895 
     56 O         -77.8115   23.8270  -78.1743 O.2       3 UNK        -0.5091 
     57 CA        -79.3106   25.6724  -78.4208 C.3       3 UNK         0.0250 
     58 CB        -80.5132   25.2932  -79.3072 C.3       3 UNK        -0.1996 
     59 N         -79.6013   26.8178  -77.5471 N.am      3 UNK        -0.4254 
     60 C         -80.5685   26.9510  -76.6307 C.2       2 UNK         0.5004 
     61 O         -81.4356   26.1022  -76.4081 O.2       2 UNK        -0.5226 
     62 CA        -80.5396   28.2444  -75.8006 C.3       2 UNK         0.0269 
     63 CB        -81.5513   29.2626  -76.3481 C.3       2 UNK        -0.1926 
     64 N         -80.8143   28.0088  -74.3825 N.am      2 UNK        -0.4687 
     65 C         -80.1197   27.1977  -73.5740 C.2       1 UNK         0.5165 
     66 O         -79.1549   26.5244  -73.9497 O.2       1 UNK        -0.5079 
     67 H67       -84.9617   26.6605  -73.0494 H         1 UNK         0.0900 
     68 H68       -85.0328   27.1585  -71.3566 H         1 UNK         0.0900 
     69 H69       -84.3068   25.6099  -71.7914 H         1 UNK         0.0900 
     70 H70       -82.0721   25.6618  -71.7493 H         1 UNK         0.2959 
     71 H71       -80.5805   28.1550  -71.7354 H         1 UNK         0.1079 
     72 H72       -78.6105   26.5643  -71.4213 H         1 UNK         0.0837 
     73 H73       -79.7182   25.2396  -71.4690 H         1 UNK         0.0837 
     74 H74       -79.8340   28.7985  -68.7661 H         1 UNK         0.0685 
     75 H75       -78.6325   27.8542  -67.9358 H         1 UNK         0.0685 
     76 H76       -76.5837   26.9952  -69.3386 H         1 UNK         0.1434 
     77 H77       -75.3770   29.6486  -72.4832 H         1 UNK         0.1329 
     78 H78       -79.2302   30.0978  -70.6657 H         1 UNK         0.1335 
     79 H79       -76.8081   31.9122  -72.5378 H         1 UNK         0.0680 
     80 H80       -78.5046   31.7350  -72.2038 H         1 UNK         0.0680 
     81 H81       -75.5953   31.0708  -74.2842 H         1 UNK         0.1032 
     82 H82       -76.2716   31.4331  -75.8249 H         1 UNK         0.1032 
     83 H83       -76.3545   28.5333  -74.9452 H         1 UNK         0.0461 
     84 H84       -74.6299   29.8948  -77.7871 H         1 UNK         0.3453 
     85 H85       -75.7837   29.2723  -78.9569 H         1 UNK         0.3453 
     86 H86       -74.2359   28.2189  -74.6846 H         1 UNK         0.2984 
     87 H87       -71.2527   29.7403  -75.8310 H         1 UNK         0.0554 
     88 H88       -70.7298   30.3106  -73.4755 H         1 UNK         0.0847 
     89 H89       -72.4089   30.0635  -73.0021 H         1 UNK         0.0847 
     90 H90       -71.9692   31.4017  -74.0539 H         1 UNK         0.0847 
     91 H91       -72.5733   27.4339  -74.7120 H         1 UNK         0.3141 
     92 H92       -69.4409   25.7849  -73.9286 H         1 UNK         0.0743 
     93 H93       -71.0377   24.8431  -72.2867 H         1 UNK         0.0784 
     94 H94       -70.6451   26.5082  -71.8864 H         1 UNK         0.0784 
     95 H95       -72.1892   26.1285  -72.6321 H         1 UNK         0.0784 
     96 H96       -72.1705   25.2265  -74.9935 H         1 UNK         0.3213 
     97 H97       -70.9048   23.6851  -77.8767 H         1 UNK         0.0855 
     98 H98       -72.0364   22.1302  -75.4823 H         1 UNK         0.0814 
     99 H99       -70.5492   21.7488  -76.3379 H         1 UNK         0.0814 
    100 H100      -72.0891   21.6129  -77.1687 H         1 UNK         0.0814 
    101 H101      -73.5134   23.7398  -76.6568 H         1 UNK         0.3105 
    102 H102      -74.3313   27.0302  -77.3524 H         1 UNK         0.0547 
    103 H103      -75.3643   24.7165  -79.0724 H         1 UNK         0.0837 
    104 H104      -76.1634   26.2703  -78.8178 H         1 UNK         0.0837 
    105 H105      -74.6443   26.1977  -79.6887 H         1 UNK         0.0837 
    106 H106      -76.0169   24.8405  -76.6649 H         1 UNK         0.3020 
    107 H107      -75.3273   24.0088  -73.7302 H         1 UNK         0.1245 
    108 H108      -76.2906   26.8367  -73.1558 H         1 UNK         0.0781 
    109 H109      -77.0260   25.4749  -72.3664 H         1 UNK         0.0781 
    110 H110      -73.9569   27.4998  -70.2019 H         1 UNK         0.0836 
    111 H111      -73.9333   27.8935  -71.9030 H         1 UNK         0.0836 
    112 H112      -77.8553   25.2064  -74.6904 H         1 UNK         0.3022 
    113 H113      -78.8517   22.1223  -76.2099 H         1 UNK         0.0747 
    114 H114      -80.8564   22.6405  -74.8427 H         1 UNK         0.0793 
    115 H115      -79.5620   22.0616  -73.8065 H         1 UNK         0.0793 
    116 H116      -79.9343   23.7796  -73.8632 H         1 UNK         0.0793 
    117 H117      -80.0807   24.6982  -76.1802 H         1 UNK         0.3047 
    118 H118      -78.5199   26.0175  -79.0880 H         1 UNK         0.0822 
    119 H119      -80.8827   26.1544  -79.8638 H         1 UNK         0.0807 
    120 H120      -81.3420   24.8873  -78.7268 H         1 UNK         0.0807 
    121 H121      -80.2302   24.5329  -80.0364 H         1 UNK         0.0807 
    122 H122      -78.8886   27.5470  -77.5720 H         1 UNK         0.2946 
    123 H123      -79.5413   28.6792  -75.8621 H         1 UNK         0.1144 
    124 H124      -81.4935   30.2079  -75.8079 H         1 UNK         0.0793 
    125 H125      -82.5747   28.8927  -76.2723 H         1 UNK         0.0793 
    126 H126      -81.3576   29.4789  -77.3996 H         1 UNK         0.0793 
    127 H127      -81.6292   28.4672  -73.9875 H         1 UNK         0.2896 
@<TRIPOS>BOND
     1    1    2 1    
     2    1   67 1    
     3    1   68 1    
     4    1   69 1    
     5    2    3 2    
     6    2    4 am   BACKBONE|DICT|INTERRES
     7    4    5 1    
     8    4   70 1    
     9    5    6 1    
    10    5   65 1    
    11    5   71 1    
    12    6    7 1    
    13    6   72 1    
    14    6   73 1    
    15    7    8 1    
    16    8    9 1    
    17    8   74 1    
    18    8   75 1    
    19    9   10 ar   
    20    9   14 ar   
    21   10   11 ar   
    22   10   76 1    
    23   11   12 ar   
    24   11   48 1    
    25   12   13 ar   
    26   12   77 1    
    27   13   14 ar   
    28   13   15 1    
    29   14   78 1    
    30   15   16 1    
    31   15   79 1    
    32   15   80 1    
    33   16   17 1    
    34   17   18 1    
    35   17   81 1    
    36   17   82 1    
    37   18   19 1    
    38   18   22 1    
    39   18   83 1    
    40   19   20 am   BACKBONE|DICT|INTERRES
    41   19   21 2    
    42   20   84 1    
    43   20   85 1    
    44   22   23 am   BACKBONE|DICT|INTERRES
    45   22   86 1    
    46   23   24 2    
    47   23   25 1    
    48   25   26 1    
    49   25   27 1    
    50   25   87 1    
    51   26   88 1    
    52   26   89 1    
    53   26   90 1    
    54   27   28 am   BACKBONE|DICT|INTERRES
    55   27   91 1    
    56   28   29 2    
    57   28   30 1    
    58   30   31 1    
    59   30   32 1    
    60   30   92 1    
    61   31   93 1    
    62   31   94 1    
    63   31   95 1    
    64   32   33 am   BACKBONE|DICT|INTERRES
    65   32   96 1    
    66   33   34 2    
    67   33   35 1    
    68   35   36 1    
    69   35   37 1    
    70   35   97 1    
    71   36   98 1    
    72   36   99 1    
    73   36  100 1    
    74   37   38 am   BACKBONE|DICT|INTERRES
    75   37  101 1    
    76   38   39 2    
    77   38   40 1    
    78   40   41 1    
    79   40   42 1    
    80   40  102 1    
    81   41  103 1    
    82   41  104 1    
    83   41  105 1    
    84   42   43 am   BACKBONE|DICT|INTERRES
    85   42  106 1    
    86   43   44 2    
    87   43   45 1    
    88   45   46 1    
    89   45   49 1    
    90   45  107 1    
    91   46   47 1    
    92   46  108 1    
    93   46  109 1    
    94   47   48 1    
    95   48  110 1    
    96   48  111 1    
    97   49   50 am   BACKBONE|DICT|INTERRES
    98   49  112 1    
    99   50   51 2    
   100   50   52 1    
   101   52   53 1    
   102   52   54 1    
   103   52  113 1    
   104   53  114 1    
   105   53  115 1    
   106   53  116 1    
   107   54   55 am   BACKBONE|DICT|INTERRES
   108   54  117 1    
   109   55   56 2    
   110   55   57 1    
   111   57   58 1    
   112   57   59 1    
   113   57  118 1    
   114   58  119 1    
   115   58  120 1    
   116   58  121 1    
   117   59   60 am   BACKBONE|DICT|INTERRES
   118   59  122 1    
   119   60   61 2    
   120   60   62 1    
   121   62   63 1    
   122   62   64 1    
   123   62  123 1    
   124   63  124 1    
   125   63  125 1    
   126   63  126 1    
   127   64   65 am   BACKBONE|DICT|INTERRES
   128   64  127 1    
   129   65   66 2    
@<TRIPOS>SUBSTRUCTURE
     1 UNK         1 GROUP             0       ****    0 ROOT    
