@<TRIPOS>MOLECULE
3R135
127   129    1
SMALL
USER_CHARGES


@<TRIPOS>ATOM
      1 CA        -83.4970   26.9652  -70.6123 C.3       0 UNK        -0.1998 
      2 C         -83.4310   27.3960  -72.0697 C.2       0 UNK         0.4909 
      3 O         -84.4659   27.4847  -72.7309 O.2       0 UNK        -0.5240 
      4 N         -82.2199   27.6634  -72.5747 N.am      1 UNK        -0.4739 
      5 CA        -81.9654   28.0795  -73.9608 C.3       1 UNK         0.0864 
      6 C6        -80.5761   28.7481  -74.1083 C.3       11 UNK        -0.0881 
      7 S7        -80.5017   30.3831  -73.2992 S.3       11 UNK        -0.2682 
      8 C8        -79.7146   30.0227  -71.6940 C.3       11 UNK         0.0289 
      9 C9        -78.3262   29.4124  -71.8350 C.ar      11 UNK        -0.0687 
     10 C10       -78.0586   28.1486  -71.2995 C.ar      11 UNK        -0.0823 
     11 C11       -76.7888   27.5738  -71.4269 C.ar      11 UNK        -0.0830 
     12 C12       -75.7820   28.2881  -72.0833 C.ar      11 UNK        -0.1021 
     13 C13       -76.0278   29.5615  -72.6025 C.ar      11 UNK        -0.0753 
     14 C14       -77.3038   30.1180  -72.4775 C.ar      11 UNK        -0.0933 
     15 C15       -74.9067   30.3442  -73.2693 C.3       11 UNK         0.0166 
     16 S16       -73.7878   31.0367  -72.0127 S.3       11 UNK        -0.2615 
     17 C17       -72.8425   32.2752  -72.9681 C.3       11 UNK        -0.0865 
     18 CA        -71.4240   31.8190  -73.4164 C.3       10 UNK         0.0862 
     19 C         -70.4829   31.4467  -72.2394 C.2       10 UNK         0.5551 
     20 N         -70.1242   32.4130  -71.4047 N.am      10 UNK        -0.7319 
     21 O         -70.0771   30.2980  -72.0706 O.2       10 UNK        -0.5018 
     22 N         -71.4617   30.7636  -74.4339 N.am      10 UNK        -0.4509 
     23 C         -71.7865   30.9414  -75.7173 C.2       10 UNK         0.4899 
     24 O         -72.1376   32.0276  -76.1795 O.2       10 UNK        -0.4839 
     25 CA        -71.7320   29.7292  -76.6656 C.3       9 UNK         0.0222 
     26 CB        -70.4594   29.7626  -77.5349 C.3       9 UNK        -0.1966 
     27 N         -71.9196   28.4129  -76.0388 N.am      9 UNK        -0.4218 
     28 C         -71.1012   27.7416  -75.2123 C.2       9 UNK         0.5020 
     29 O         -70.0415   28.1986  -74.7846 O.2       9 UNK        -0.5274 
     30 CA        -71.5329   26.3306  -74.7619 C.3       8 UNK         0.0270 
     31 CB        -72.0177   26.3677  -73.3039 C.3       8 UNK        -0.1976 
     32 N         -72.5755   25.7356  -75.6050 N.am      8 UNK        -0.4313 
     33 C         -72.3911   25.3400  -76.8752 C.2       8 UNK         0.5041 
     34 O         -71.2870   25.3143  -77.4207 O.2       8 UNK        -0.5577 
     35 CA        -73.6319   24.9361  -77.6999 C.3       7 UNK         0.0284 
     36 CB        -73.7257   23.4047  -77.8007 C.3       7 UNK        -0.1958 
     37 N         -74.9071   25.4608  -77.1995 N.am      7 UNK        -0.4454 
     38 C         -75.2020   26.7486  -76.9681 C.2       7 UNK         0.5089 
     39 O         -74.4502   27.6831  -77.2437 O.2       7 UNK        -0.5125 
     40 CA        -76.5202   27.0430  -76.2312 C.3       6 UNK         0.0408 
     41 CB        -77.6347   27.3811  -77.2316 C.3       6 UNK        -0.1791 
     42 N         -76.9731   25.9604  -75.3520 N.am      6 UNK        -0.4762 
     43 C         -76.2820   25.4203  -74.3353 C.2       6 UNK         0.5007 
     44 O         -75.1226   25.7233  -74.0518 O.2       6 UNK        -0.5032 
     45 CA        -77.0036   24.3155  -73.5444 C.3       5 UNK         0.0783 
     46 C46       -78.1731   24.8876  -72.6934 C.3       11 UNK        -0.0857 
     47 S47       -77.8052   24.9769  -70.9111 S.3       11 UNK        -0.2512 
     48 C48       -76.4584   26.2090  -70.8255 C.3       11 UNK         0.0225 
     49 N         -77.4623   23.2887  -74.4789 N.am      5 UNK        -0.4615 
     50 C         -76.7005   22.2992  -74.9623 C.2       4 UNK         0.5053 
     51 O         -75.5484   22.0792  -74.5898 O.2       4 UNK        -0.5105 
     52 CA        -77.3204   21.4016  -76.0499 C.3       4 UNK         0.0263 
     53 CB        -77.8579   20.1022  -75.4291 C.3       4 UNK        -0.1981 
     54 N         -78.3942   22.0529  -76.8064 N.am      4 UNK        -0.4224 
     55 C         -78.2184   23.0837  -77.6453 C.2       3 UNK         0.4895 
     56 O         -77.1226   23.5811  -77.9016 O.2       3 UNK        -0.5091 
     57 CA        -79.4898   23.7001  -78.2547 C.3       3 UNK         0.0250 
     58 CB        -79.9182   22.9220  -79.5090 C.3       3 UNK        -0.1996 
     59 N         -80.6208   23.7936  -77.3207 N.am      3 UNK        -0.4254 
     60 C         -80.5931   24.4390  -76.1461 C.2       2 UNK         0.5004 
     61 O         -79.5793   24.9587  -75.6739 O.2       2 UNK        -0.5226 
     62 CA        -81.8975   24.4694  -75.3341 C.3       2 UNK         0.0269 
     63 CB        -81.9942   23.2259  -74.4354 C.3       2 UNK        -0.1926 
     64 N         -81.9623   25.6685  -74.4951 N.am      2 UNK        -0.4687 
     65 C         -82.1064   26.9163  -74.9661 C.2       1 UNK         0.5165 
     66 O         -82.3347   27.1712  -76.1501 O.2       1 UNK        -0.5079 
     67 H67       -82.5101   26.9302  -70.1511 H         1 UNK         0.0900 
     68 H68       -84.1121   27.6617  -70.0433 H         1 UNK         0.0900 
     69 H69       -83.9430   25.9741  -70.5341 H         1 UNK         0.0900 
     70 H70       -81.4059   27.5796  -71.9847 H         1 UNK         0.2959 
     71 H71       -82.7260   28.8131  -74.2388 H         1 UNK         0.1079 
     72 H72       -80.3442   28.9196  -75.1617 H         1 UNK         0.0837 
     73 H73       -79.7844   28.0950  -73.7380 H         1 UNK         0.0837 
     74 H74       -79.6323   30.9531  -71.1305 H         1 UNK         0.0685 
     75 H75       -80.3717   29.3747  -71.1129 H         1 UNK         0.0685 
     76 H76       -78.8391   27.6123  -70.7784 H         1 UNK         0.1434 
     77 H77       -74.7928   27.8623  -72.1733 H         1 UNK         0.1329 
     78 H78       -77.5039   31.1037  -72.8750 H         1 UNK         0.1335 
     79 H79       -75.3196   31.1472  -73.8817 H         1 UNK         0.0680 
     80 H80       -74.3438   29.6944  -73.9417 H         1 UNK         0.0680 
     81 H81       -73.4258   32.5922  -73.8333 H         1 UNK         0.1032 
     82 H82       -72.7588   33.1692  -72.3483 H         1 UNK         0.1032 
     83 H83       -70.9445   32.6770  -73.8925 H         1 UNK         0.0461 
     84 H84       -70.4448   33.3604  -71.5308 H         1 UNK         0.3453 
     85 H85       -69.5162   32.1900  -70.6322 H         1 UNK         0.3453 
     86 H86       -71.0869   29.8672  -74.1390 H         1 UNK         0.2984 
     87 H87       -72.5831   29.8400  -77.3394 H         1 UNK         0.0554 
     88 H88       -70.3981   30.6944  -78.0987 H         1 UNK         0.0847 
     89 H89       -70.4509   28.9461  -78.2571 H         1 UNK         0.0847 
     90 H90       -69.5522   29.6899  -76.9346 H         1 UNK         0.0847 
     91 H91       -72.7861   27.9562  -76.3134 H         1 UNK         0.3141 
     92 H92       -70.6517   25.6878  -74.8126 H         1 UNK         0.0743 
     93 H93       -72.8730   27.0325  -73.1854 H         1 UNK         0.0784 
     94 H94       -72.3102   25.3774  -72.9540 H         1 UNK         0.0784 
     95 H95       -71.2316   26.7292  -72.6394 H         1 UNK         0.0784 
     96 H96       -73.5123   25.7043  -75.2093 H         1 UNK         0.3213 
     97 H97       -73.4911   25.3392  -78.7047 H         1 UNK         0.0855 
     98 H98       -73.9313   22.9499  -76.8307 H         1 UNK         0.0814 
     99 H99       -72.7930   22.9772  -78.1715 H         1 UNK         0.0814 
    100 H100      -74.5138   23.0991  -78.4889 H         1 UNK         0.0814 
    101 H101      -75.6335   24.7765  -77.0173 H         1 UNK         0.3105 
    102 H102      -76.3515   27.9168  -75.5983 H         1 UNK         0.0547 
    103 H103      -77.3546   28.2309  -77.8555 H         1 UNK         0.0837 
    104 H104      -77.8426   26.5424  -77.8959 H         1 UNK         0.0837 
    105 H105      -78.5621   27.6432  -76.7220 H         1 UNK         0.0837 
    106 H106      -77.9213   25.6210  -75.5126 H         1 UNK         0.3020 
    107 H107      -76.2673   23.8582  -72.8790 H         1 UNK         0.1245 
    108 H108      -79.0511   24.2459  -72.7807 H         1 UNK         0.0781 
    109 H109      -78.5143   25.8649  -73.0408 H         1 UNK         0.0781 
    110 H110      -75.5729   25.7870  -71.3032 H         1 UNK         0.0836 
    111 H111      -76.1936   26.3542  -69.7776 H         1 UNK         0.0836 
    112 H112      -78.3713   23.4499  -74.8938 H         1 UNK         0.3022 
    113 H113      -76.5238   21.1436  -76.7513 H         1 UNK         0.0747 
    114 H114      -78.2272   19.4191  -76.1943 H         1 UNK         0.0793 
    115 H115      -77.0733   19.5778  -74.8816 H         1 UNK         0.0793 
    116 H116      -78.6711   20.2949  -74.7279 H         1 UNK         0.0793 
    117 H117      -79.3326   21.7123  -76.6557 H         1 UNK         0.3047 
    118 H118      -79.2403   24.7178  -78.5599 H         1 UNK         0.0822 
    119 H119      -80.7478   23.4137  -80.0175 H         1 UNK         0.0807 
    120 H120      -80.2264   21.9034  -79.2698 H         1 UNK         0.0807 
    121 H121      -79.0978   22.8544  -80.2253 H         1 UNK         0.0807 
    122 H122      -81.4893   23.3775  -77.6258 H         1 UNK         0.2946 
    123 H123      -82.7445   24.4828  -76.0240 H         1 UNK         0.1144 
    124 H124      -82.9200   23.2249  -73.8596 H         1 UNK         0.0793 
    125 H125      -81.1626   23.1677  -73.7320 H         1 UNK         0.0793 
    126 H126      -81.9842   22.3104  -75.0283 H         1 UNK         0.0793 
    127 H127      -81.7661   25.5511  -73.5127 H         1 UNK         0.2896 
@<TRIPOS>BOND
     1    1    2 1    
     2    1   67 1    
     3    1   68 1    
     4    1   69 1    
     5    2    3 2    
     6    2    4 am   BACKBONE|DICT|INTERRES
     7    4    5 1    
     8    4   70 1    
     9    5    6 1    
    10    5   65 1    
    11    5   71 1    
    12    6    7 1    
    13    6   72 1    
    14    6   73 1    
    15    7    8 1    
    16    8    9 1    
    17    8   74 1    
    18    8   75 1    
    19    9   10 ar   
    20    9   14 ar   
    21   10   11 ar   
    22   10   76 1    
    23   11   12 ar   
    24   11   48 1    
    25   12   13 ar   
    26   12   77 1    
    27   13   14 ar   
    28   13   15 1    
    29   14   78 1    
    30   15   16 1    
    31   15   79 1    
    32   15   80 1    
    33   16   17 1    
    34   17   18 1    
    35   17   81 1    
    36   17   82 1    
    37   18   19 1    
    38   18   22 1    
    39   18   83 1    
    40   19   20 am   BACKBONE|DICT|INTERRES
    41   19   21 2    
    42   20   84 1    
    43   20   85 1    
    44   22   23 am   BACKBONE|DICT|INTERRES
    45   22   86 1    
    46   23   24 2    
    47   23   25 1    
    48   25   26 1    
    49   25   27 1    
    50   25   87 1    
    51   26   88 1    
    52   26   89 1    
    53   26   90 1    
    54   27   28 am   BACKBONE|DICT|INTERRES
    55   27   91 1    
    56   28   29 2    
    57   28   30 1    
    58   30   31 1    
    59   30   32 1    
    60   30   92 1    
    61   31   93 1    
    62   31   94 1    
    63   31   95 1    
    64   32   33 am   BACKBONE|DICT|INTERRES
    65   32   96 1    
    66   33   34 2    
    67   33   35 1    
    68   35   36 1    
    69   35   37 1    
    70   35   97 1    
    71   36   98 1    
    72   36   99 1    
    73   36  100 1    
    74   37   38 am   BACKBONE|DICT|INTERRES
    75   37  101 1    
    76   38   39 2    
    77   38   40 1    
    78   40   41 1    
    79   40   42 1    
    80   40  102 1    
    81   41  103 1    
    82   41  104 1    
    83   41  105 1    
    84   42   43 am   BACKBONE|DICT|INTERRES
    85   42  106 1    
    86   43   44 2    
    87   43   45 1    
    88   45   46 1    
    89   45   49 1    
    90   45  107 1    
    91   46   47 1    
    92   46  108 1    
    93   46  109 1    
    94   47   48 1    
    95   48  110 1    
    96   48  111 1    
    97   49   50 am   BACKBONE|DICT|INTERRES
    98   49  112 1    
    99   50   51 2    
   100   50   52 1    
   101   52   53 1    
   102   52   54 1    
   103   52  113 1    
   104   53  114 1    
   105   53  115 1    
   106   53  116 1    
   107   54   55 am   BACKBONE|DICT|INTERRES
   108   54  117 1    
   109   55   56 2    
   110   55   57 1    
   111   57   58 1    
   112   57   59 1    
   113   57  118 1    
   114   58  119 1    
   115   58  120 1    
   116   58  121 1    
   117   59   60 am   BACKBONE|DICT|INTERRES
   118   59  122 1    
   119   60   61 2    
   120   60   62 1    
   121   62   63 1    
   122   62   64 1    
   123   62  123 1    
   124   63  124 1    
   125   63  125 1    
   126   63  126 1    
   127   64   65 am   BACKBONE|DICT|INTERRES
   128   64  127 1    
   129   65   66 2    
@<TRIPOS>SUBSTRUCTURE
     1 UNK         1 GROUP             0       ****    0 ROOT    
