@<TRIPOS>MOLECULE
3R135
127   129    1
SMALL
USER_CHARGES


@<TRIPOS>ATOM
      1 CA        -75.9724   26.8737  -67.6541 C.3       0 UNK        -0.1998 
      2 C         -77.4178   26.4514  -67.8703 C.2       0 UNK         0.4909 
      3 O         -77.8758   25.4907  -67.2511 O.2       0 UNK        -0.5240 
      4 N         -78.1400   27.1623  -68.7456 N.am      1 UNK        -0.4739 
      5 CA        -79.5347   26.8823  -69.1150 C.3       1 UNK         0.0864 
      6 C6        -80.2203   28.1259  -69.7352 C.3       11 UNK        -0.0881 
      7 S7        -79.3264   28.8239  -71.1682 S.3       11 UNK        -0.2682 
      8 C8        -80.5783   28.6476  -72.4862 C.3       11 UNK         0.0289 
      9 C9        -80.1142   29.0761  -73.8799 C.ar      11 UNK        -0.0687 
     10 C10       -80.7968   28.5822  -74.9958 C.ar      11 UNK        -0.0823 
     11 C11       -80.4196   28.9529  -76.2900 C.ar      11 UNK        -0.0830 
     12 C12       -79.3309   29.8106  -76.4715 C.ar      11 UNK        -0.1021 
     13 C13       -78.6345   30.3111  -75.3680 C.ar      11 UNK        -0.0753 
     14 C14       -79.0472   29.9614  -74.0793 C.ar      11 UNK        -0.0933 
     15 C15       -77.4397   31.2325  -75.5676 C.3       11 UNK         0.0166 
     16 S16       -75.8798   30.2934  -75.6236 S.3       11 UNK        -0.2615 
     17 C17       -75.5788   29.9351  -73.8562 C.3       11 UNK        -0.0865 
     18 CA        -74.1508   30.3243  -73.3959 C.3       10 UNK         0.0862 
     19 C         -74.0048   30.1071  -71.8643 C.2       10 UNK         0.5551 
     20 N         -74.0743   31.1706  -71.0757 N.am      10 UNK        -0.7319 
     21 O         -73.8833   28.9807  -71.3881 O.2       10 UNK        -0.5018 
     22 N         -73.1354   29.6018  -74.1722 N.am      10 UNK        -0.4509 
     23 C         -71.8073   29.7502  -74.0807 C.2       10 UNK         0.4899 
     24 O         -71.2545   30.5801  -73.3571 O.2       10 UNK        -0.4839 
     25 CA        -70.9625   28.8252  -74.9802 C.3       9 UNK         0.0222 
     26 CB        -69.5006   28.6786  -74.5052 C.3       9 UNK        -0.1966 
     27 N         -71.6000   27.5191  -75.1997 N.am      9 UNK        -0.4218 
     28 C         -71.8370   26.5630  -74.2849 C.2       9 UNK         0.5020 
     29 O         -71.4288   26.6138  -73.1240 O.2       9 UNK        -0.5274 
     30 CA        -72.7072   25.3578  -74.7019 C.3       8 UNK         0.0270 
     31 CB        -74.0204   25.3566  -73.8987 C.3       8 UNK        -0.1976 
     32 N         -73.0284   25.3059  -76.1321 N.am      8 UNK        -0.4313 
     33 C         -72.1568   25.0085  -77.1059 C.2       8 UNK         0.5041 
     34 O         -70.9956   24.6556  -76.8975 O.2       8 UNK        -0.5577 
     35 CA        -72.6388   25.1834  -78.5579 C.3       7 UNK         0.0284 
     36 CB        -73.2596   23.8835  -79.0918 C.3       7 UNK        -0.1958 
     37 N         -73.5899   26.2841  -78.7446 N.am      7 UNK        -0.4454 
     38 C         -73.3696   27.5774  -78.4767 C.2       7 UNK         0.5089 
     39 O         -72.3130   28.0014  -78.0102 O.2       7 UNK        -0.5125 
     40 CA        -74.5232   28.5675  -78.7300 C.3       6 UNK         0.0408 
     41 CB        -74.5537   29.0253  -80.2007 C.3       6 UNK        -0.1791 
     42 N         -75.8398   28.0958  -78.2721 N.am      6 UNK        -0.4762 
     43 C         -76.5699   27.0759  -78.7460 C.2       6 UNK         0.5007 
     44 O         -76.2479   26.3951  -79.7232 O.2       6 UNK        -0.5032 
     45 CA        -77.8567   26.7215  -77.9758 C.3       5 UNK         0.0783 
     46 C46       -79.0944   27.1123  -78.8204 C.3       11 UNK        -0.0857 
     47 S47       -80.6743   26.7695  -77.9755 S.3       11 UNK        -0.2512 
     48 C48       -81.2065   28.4378  -77.4854 C.3       11 UNK         0.0225 
     49 N         -77.8811   25.3029  -77.5986 N.am      5 UNK        -0.4615 
     50 C         -76.9261   24.6252  -76.9485 C.2       4 UNK         0.5053 
     51 O         -75.8693   25.1255  -76.5576 O.2       4 UNK        -0.5105 
     52 CA        -77.2274   23.1406  -76.6697 C.3       4 UNK         0.0263 
     53 CB        -75.9942   22.3611  -76.1757 C.3       4 UNK        -0.1981 
     54 N         -78.2926   23.0043  -75.6773 N.am      4 UNK        -0.4224 
     55 C         -79.6040   23.1600  -75.9053 C.2       3 UNK         0.4895 
     56 O         -80.0760   23.3667  -77.0239 O.2       3 UNK        -0.5091 
     57 CA        -80.5515   23.0620  -74.6930 C.3       3 UNK         0.0250 
     58 CB        -81.3788   21.7673  -74.7601 C.3       3 UNK        -0.1996 
     59 N         -79.8568   23.1180  -73.4007 N.am      3 UNK        -0.4254 
     60 C         -79.3565   24.2347  -72.8547 C.2       2 UNK         0.5004 
     61 O         -79.4549   25.3517  -73.3646 O.2       2 UNK        -0.5226 
     62 CA        -78.5514   24.0483  -71.5577 C.3       2 UNK         0.0269 
     63 CB        -77.0777   23.7525  -71.8863 C.3       2 UNK        -0.1926 
     64 N         -78.6093   25.2244  -70.6894 N.am      2 UNK        -0.4687 
     65 C         -79.6891   25.6265  -70.0040 C.2       1 UNK         0.5165 
     66 O         -80.7690   25.0331  -70.0270 O.2       1 UNK        -0.5079 
     67 H67       -75.3018   26.0453  -67.8808 H         1 UNK         0.0900 
     68 H68       -75.8176   27.1637  -66.6152 H         1 UNK         0.0900 
     69 H69       -75.6945   27.7165  -68.2872 H         1 UNK         0.0900 
     70 H70       -77.7191   27.9444  -69.2285 H         1 UNK         0.2959 
     71 H71       -80.0712   26.6526  -68.1913 H         1 UNK         0.1079 
     72 H72       -81.2531   27.8993  -70.0074 H         1 UNK         0.0837 
     73 H73       -80.2888   28.9107  -68.9802 H         1 UNK         0.0837 
     74 H74       -80.8913   27.6025  -72.5173 H         1 UNK         0.0685 
     75 H75       -81.4585   29.2332  -72.2178 H         1 UNK         0.0685 
     76 H76       -81.6306   27.9072  -74.8573 H         1 UNK         0.1434 
     77 H77       -79.0273   30.0934  -77.4702 H         1 UNK         0.1329 
     78 H78       -78.5269   30.3787  -73.2312 H         1 UNK         0.1335 
     79 H79       -77.3967   31.9856  -74.7792 H         1 UNK         0.0680 
     80 H80       -77.5487   31.7822  -76.5038 H         1 UNK         0.0680 
     81 H81       -75.7702   28.8744  -73.6799 H         1 UNK         0.1032 
     82 H82       -76.3067   30.4760  -73.2518 H         1 UNK         0.1032 
     83 H83       -74.0071   31.3864  -73.6049 H         1 UNK         0.0461 
     84 H84       -74.1814   32.0975  -71.4576 H         1 UNK         0.3453 
     85 H85       -73.9986   31.0464  -70.0784 H         1 UNK         0.3453 
     86 H86       -73.4902   28.8989  -74.8011 H         1 UNK         0.2984 
     87 H87       -70.9352   29.3079  -75.9580 H         1 UNK         0.0554 
     88 H88       -68.9371   28.0095  -75.1553 H         1 UNK         0.0847 
     89 H89       -69.4385   28.2914  -73.4880 H         1 UNK         0.0847 
     90 H90       -68.9906   29.6426  -74.5135 H         1 UNK         0.0847 
     91 H91       -71.9488   27.3783  -76.1432 H         1 UNK         0.3141 
     92 H92       -72.1491   24.4550  -74.4455 H         1 UNK         0.0743 
     93 H93       -74.6424   26.2196  -74.1403 H         1 UNK         0.0784 
     94 H94       -74.6039   24.4591  -74.0959 H         1 UNK         0.0784 
     95 H95       -73.8293   25.3831  -72.8249 H         1 UNK         0.0784 
     96 H96       -73.9971   25.4902  -76.3873 H         1 UNK         0.3213 
     97 H97       -71.7575   25.4118  -79.1608 H         1 UNK         0.0855 
     98 H98       -74.2098   23.6641  -78.6061 H         1 UNK         0.0814 
     99 H99       -72.5982   23.0321  -78.9247 H         1 UNK         0.0814 
    100 H100      -73.4421   23.9454  -80.1648 H         1 UNK         0.0814 
    101 H101      -74.5044   26.0492  -79.1229 H         1 UNK         0.3105 
    102 H102      -74.3073   29.4503  -78.1264 H         1 UNK         0.0547 
    103 H103      -73.6041   29.4818  -80.4826 H         1 UNK         0.0837 
    104 H104      -74.7273   28.1971  -80.8880 H         1 UNK         0.0837 
    105 H105      -75.3323   29.7694  -80.3680 H         1 UNK         0.0837 
    106 H106      -76.1769   28.5720  -77.4444 H         1 UNK         0.3020 
    107 H107      -77.8757   27.2916  -77.0444 H         1 UNK         0.1245 
    108 H108      -79.0547   28.1674  -79.0969 H         1 UNK         0.0781 
    109 H109      -79.1004   26.5589  -79.7618 H         1 UNK         0.0781 
    110 H110      -81.1225   29.1213  -78.3318 H         1 UNK         0.0836 
    111 H111      -82.2676   28.4047  -77.2336 H         1 UNK         0.0836 
    112 H112      -78.7406   24.8093  -77.8114 H         1 UNK         0.3022 
    113 H113      -77.5529   22.6883  -77.6091 H         1 UNK         0.0747 
    114 H114      -76.2147   21.2982  -76.0754 H         1 UNK         0.0793 
    115 H115      -75.1626   22.4506  -76.8739 H         1 UNK         0.0793 
    116 H116      -75.6468   22.7204  -75.2076 H         1 UNK         0.0793 
    117 H117      -77.9982   22.8591  -74.7242 H         1 UNK         0.3047 
    118 H118      -81.2378   23.9098  -74.7533 H         1 UNK         0.0822 
    119 H119      -82.1036   21.7164  -73.9473 H         1 UNK         0.0807 
    120 H120      -80.7472   20.8797  -74.7052 H         1 UNK         0.0807 
    121 H121      -81.9397   21.7102  -75.6942 H         1 UNK         0.0807 
    122 H122      -79.7311   22.2377  -72.9205 H         1 UNK         0.2946 
    123 H123      -78.9678   23.2026  -71.0052 H         1 UNK         0.1144 
    124 H124      -76.9794   22.8470  -72.4861 H         1 UNK         0.0793 
    125 H125      -76.4911   23.6009  -70.9798 H         1 UNK         0.0793 
    126 H126      -76.6208   24.5683  -72.4484 H         1 UNK         0.0793 
    127 H127      -77.7798   25.7964  -70.6381 H         1 UNK         0.2896 
@<TRIPOS>BOND
     1    1    2 1    
     2    1   67 1    
     3    1   68 1    
     4    1   69 1    
     5    2    3 2    
     6    2    4 am   BACKBONE|DICT|INTERRES
     7    4    5 1    
     8    4   70 1    
     9    5    6 1    
    10    5   65 1    
    11    5   71 1    
    12    6    7 1    
    13    6   72 1    
    14    6   73 1    
    15    7    8 1    
    16    8    9 1    
    17    8   74 1    
    18    8   75 1    
    19    9   10 ar   
    20    9   14 ar   
    21   10   11 ar   
    22   10   76 1    
    23   11   12 ar   
    24   11   48 1    
    25   12   13 ar   
    26   12   77 1    
    27   13   14 ar   
    28   13   15 1    
    29   14   78 1    
    30   15   16 1    
    31   15   79 1    
    32   15   80 1    
    33   16   17 1    
    34   17   18 1    
    35   17   81 1    
    36   17   82 1    
    37   18   19 1    
    38   18   22 1    
    39   18   83 1    
    40   19   20 am   BACKBONE|DICT|INTERRES
    41   19   21 2    
    42   20   84 1    
    43   20   85 1    
    44   22   23 am   BACKBONE|DICT|INTERRES
    45   22   86 1    
    46   23   24 2    
    47   23   25 1    
    48   25   26 1    
    49   25   27 1    
    50   25   87 1    
    51   26   88 1    
    52   26   89 1    
    53   26   90 1    
    54   27   28 am   BACKBONE|DICT|INTERRES
    55   27   91 1    
    56   28   29 2    
    57   28   30 1    
    58   30   31 1    
    59   30   32 1    
    60   30   92 1    
    61   31   93 1    
    62   31   94 1    
    63   31   95 1    
    64   32   33 am   BACKBONE|DICT|INTERRES
    65   32   96 1    
    66   33   34 2    
    67   33   35 1    
    68   35   36 1    
    69   35   37 1    
    70   35   97 1    
    71   36   98 1    
    72   36   99 1    
    73   36  100 1    
    74   37   38 am   BACKBONE|DICT|INTERRES
    75   37  101 1    
    76   38   39 2    
    77   38   40 1    
    78   40   41 1    
    79   40   42 1    
    80   40  102 1    
    81   41  103 1    
    82   41  104 1    
    83   41  105 1    
    84   42   43 am   BACKBONE|DICT|INTERRES
    85   42  106 1    
    86   43   44 2    
    87   43   45 1    
    88   45   46 1    
    89   45   49 1    
    90   45  107 1    
    91   46   47 1    
    92   46  108 1    
    93   46  109 1    
    94   47   48 1    
    95   48  110 1    
    96   48  111 1    
    97   49   50 am   BACKBONE|DICT|INTERRES
    98   49  112 1    
    99   50   51 2    
   100   50   52 1    
   101   52   53 1    
   102   52   54 1    
   103   52  113 1    
   104   53  114 1    
   105   53  115 1    
   106   53  116 1    
   107   54   55 am   BACKBONE|DICT|INTERRES
   108   54  117 1    
   109   55   56 2    
   110   55   57 1    
   111   57   58 1    
   112   57   59 1    
   113   57  118 1    
   114   58  119 1    
   115   58  120 1    
   116   58  121 1    
   117   59   60 am   BACKBONE|DICT|INTERRES
   118   59  122 1    
   119   60   61 2    
   120   60   62 1    
   121   62   63 1    
   122   62   64 1    
   123   62  123 1    
   124   63  124 1    
   125   63  125 1    
   126   63  126 1    
   127   64   65 am   BACKBONE|DICT|INTERRES
   128   64  127 1    
   129   65   66 2    
@<TRIPOS>SUBSTRUCTURE
     1 UNK         1 GROUP             0       ****    0 ROOT    
