@<TRIPOS>MOLECULE
3R135
127   129    1
SMALL
USER_CHARGES


@<TRIPOS>ATOM
      1 CA        -85.3129   27.8205  -70.7213 C.3       0 UNK        -0.1998 
      2 C         -84.5533   28.4852  -71.8595 C.2       0 UNK         0.4909 
      3 O         -85.1734   29.0512  -72.7602 O.2       0 UNK        -0.5240 
      4 N         -83.2147   28.4234  -71.8240 N.am      1 UNK        -0.4739 
      5 CA        -82.3210   28.9831  -72.8476 C.3       1 UNK         0.0864 
      6 C6        -80.8653   29.0678  -72.3204 C.3       11 UNK        -0.0881 
      7 S7        -79.8762   30.3591  -73.1477 S.3       11 UNK        -0.2682 
      8 C8        -78.5740   29.3863  -73.9692 C.3       11 UNK         0.0289 
      9 C9        -77.6171   28.7443  -72.9721 C.ar      11 UNK        -0.0687 
     10 C10       -77.6466   27.3662  -72.7412 C.ar      11 UNK        -0.0823 
     11 C11       -76.7659   26.7774  -71.8293 C.ar      11 UNK        -0.0830 
     12 C12       -75.8466   27.5845  -71.1496 C.ar      11 UNK        -0.1021 
     13 C13       -75.7951   28.9655  -71.3698 C.ar      11 UNK        -0.0753 
     14 C14       -76.6934   29.5355  -72.2837 C.ar      11 UNK        -0.0933 
     15 C15       -74.7758   29.7875  -70.5723 C.3       11 UNK         0.0166 
     16 S16       -74.6615   31.5646  -70.9991 S.3       11 UNK        -0.2615 
     17 C17       -73.1554   31.6541  -72.0299 C.3       11 UNK        -0.0865 
     18 CA        -73.4422   31.4976  -73.5449 C.3       10 UNK         0.0862 
     19 C         -72.2179   31.9489  -74.3867 C.2       10 UNK         0.5551 
     20 N         -72.2010   33.1965  -74.8348 N.am      10 UNK        -0.7319 
     21 O         -71.2680   31.1963  -74.5954 O.2       10 UNK        -0.5018 
     22 N         -73.8312   30.1196  -73.8512 N.am      10 UNK        -0.4509 
     23 C         -74.3548   29.6794  -74.9966 C.2       10 UNK         0.4899 
     24 O         -74.6522   30.4041  -75.9474 O.2       10 UNK        -0.4839 
     25 CA        -74.5642   28.1564  -75.0750 C.3       9 UNK         0.0222 
     26 CB        -75.5708   27.7562  -76.1680 C.3       9 UNK        -0.1966 
     27 N         -73.2946   27.4478  -75.2775 N.am      9 UNK        -0.4218 
     28 C         -72.3471   27.2907  -74.3362 C.2       9 UNK         0.5020 
     29 O         -72.4879   27.6790  -73.1746 O.2       9 UNK        -0.5274 
     30 CA        -71.0317   26.5846  -74.7213 C.3       8 UNK         0.0270 
     31 CB        -70.6029   25.5509  -73.6628 C.3       8 UNK        -0.1976 
     32 N         -71.1046   25.9197  -76.0227 N.am      8 UNK        -0.4313 
     33 C         -70.6101   26.4122  -77.1669 C.2       8 UNK         0.5041 
     34 O         -70.0031   27.4806  -77.2461 O.2       8 UNK        -0.5577 
     35 CA        -70.8349   25.5879  -78.4503 C.3       7 UNK         0.0284 
     36 CB        -69.5675   24.7942  -78.8073 C.3       7 UNK        -0.1958 
     37 N         -71.9740   24.6670  -78.3807 N.am      7 UNK        -0.4454 
     38 C         -73.2509   25.0374  -78.2156 C.2       7 UNK         0.5089 
     39 O         -73.6068   26.2115  -78.1235 O.2       7 UNK        -0.5125 
     40 CA        -74.3045   23.9225  -78.0814 C.3       6 UNK         0.0408 
     41 CB        -73.8174   22.5326  -78.5493 C.3       6 UNK        -0.1791 
     42 N         -74.8450   23.8379  -76.7198 N.am      6 UNK        -0.4762 
     43 C         -74.1579   23.6537  -75.5778 C.2       6 UNK         0.5007 
     44 O         -72.9272   23.5996  -75.5336 O.2       6 UNK        -0.5032 
     45 CA        -74.9535   23.5043  -74.2577 C.3       5 UNK         0.0783 
     46 C46       -74.6753   24.6959  -73.3111 C.3       11 UNK        -0.0857 
     47 S47       -75.2515   24.4068  -71.6059 S.3       11 UNK        -0.2512 
     48 C48       -76.8547   25.2786  -71.5504 C.3       11 UNK         0.0225 
     49 N         -76.3921   23.3422  -74.4776 N.am      5 UNK        -0.4615 
     50 C         -77.0031   22.2472  -74.9458 C.2       4 UNK         0.5053 
     51 O         -76.4278   21.1810  -75.1615 O.2       4 UNK        -0.5105 
     52 CA        -78.5098   22.3774  -75.2509 C.3       4 UNK         0.0263 
     53 CB        -79.3405   21.7091  -74.1434 C.3       4 UNK        -0.1981 
     54 N         -78.9702   23.7635  -75.4226 N.am      4 UNK        -0.4224 
     55 C         -78.5570   24.6089  -76.3804 C.2       3 UNK         0.4895 
     56 O         -77.7345   24.3020  -77.2438 O.2       3 UNK        -0.5091 
     57 CA        -79.0863   26.0542  -76.3082 C.3       3 UNK         0.0250 
     58 CB        -79.0576   26.7755  -77.6723 C.3       3 UNK        -0.1996 
     59 N         -80.4001   26.1770  -75.6599 N.am      3 UNK        -0.4254 
     60 C         -81.5768   25.7108  -76.1051 C.2       2 UNK         0.5004 
     61 O         -81.7132   25.0763  -77.1514 O.2       2 UNK        -0.5226 
     62 CA        -82.8165   25.9699  -75.2251 C.3       2 UNK         0.0269 
     63 CB        -83.3758   24.6435  -74.6815 C.3       2 UNK        -0.1926 
     64 N         -82.5972   26.8812  -74.0934 N.am      2 UNK        -0.4687 
     65 C         -82.4120   28.2080  -74.1824 C.2       1 UNK         0.5165 
     66 O         -82.3343   28.8127  -75.2519 O.2       1 UNK        -0.5079 
     67 H67       -85.9660   27.0405  -71.1118 H         1 UNK         0.0900 
     68 H68       -85.9301   28.5542  -70.2035 H         1 UNK         0.0900 
     69 H69       -84.6419   27.3672  -69.9920 H         1 UNK         0.0900 
     70 H70       -82.7640   27.9562  -71.0496 H         1 UNK         0.2959 
     71 H71       -82.6711   29.9988  -73.0476 H         1 UNK         0.1079 
     72 H72       -80.8707   29.3344  -71.2621 H         1 UNK         0.0837 
     73 H73       -80.3678   28.0987  -72.3692 H         1 UNK         0.0837 
     74 H74       -79.0382   28.6395  -74.6128 H         1 UNK         0.0685 
     75 H75       -78.0088   30.0457  -74.6298 H         1 UNK         0.0685 
     76 H76       -78.3691   26.7522  -73.2575 H         1 UNK         0.1434 
     77 H77       -75.1699   27.1333  -70.4365 H         1 UNK         0.1329 
     78 H78       -76.6891   30.5991  -72.4715 H         1 UNK         0.1335 
     79 H79       -75.0457   29.7206  -69.5176 H         1 UNK         0.0680 
     80 H80       -73.7920   29.3250  -70.6625 H         1 UNK         0.0680 
     81 H81       -72.7070   32.6299  -71.8321 H         1 UNK         0.1032 
     82 H82       -72.4199   30.9215  -71.6920 H         1 UNK         0.1032 
     83 H83       -74.2861   32.1400  -73.8053 H         1 UNK         0.0461 
     84 H84       -72.9704   33.8241  -74.6593 H         1 UNK         0.3453 
     85 H85       -71.4075   33.5149  -75.3689 H         1 UNK         0.3453 
     86 H86       -73.5381   29.4139  -73.1843 H         1 UNK         0.2984 
     87 H87       -74.9837   27.8422  -74.1188 H         1 UNK         0.0554 
     88 H88       -75.7424   26.6802  -76.1802 H         1 UNK         0.0847 
     89 H89       -76.5335   28.2401  -76.0031 H         1 UNK         0.0847 
     90 H90       -75.2296   28.0522  -77.1604 H         1 UNK         0.0847 
     91 H91       -73.1121   27.1187  -76.2190 H         1 UNK         0.3141 
     92 H92       -70.2667   27.3634  -74.7434 H         1 UNK         0.0743 
     93 H93       -70.5232   26.0034  -72.6735 H         1 UNK         0.0784 
     94 H94       -71.3093   24.7246  -73.5896 H         1 UNK         0.0784 
     95 H95       -69.6259   25.1298  -73.9004 H         1 UNK         0.0784 
     96 H96       -71.6138   25.0396  -76.0450 H         1 UNK         0.3213 
     97 H97       -71.0338   26.2971  -79.2568 H         1 UNK         0.0855 
     98 H98       -68.7050   25.4565  -78.8968 H         1 UNK         0.0814 
     99 H99       -69.6761   24.2779  -79.7612 H         1 UNK         0.0814 
    100 H100      -69.3287   24.0507  -78.0457 H         1 UNK         0.0814 
    101 H101      -71.7646   23.6797  -78.4141 H         1 UNK         0.3105 
    102 H102      -75.1368   24.2127  -78.7244 H         1 UNK         0.0547 
    103 H103      -73.4436   22.5683  -79.5735 H         1 UNK         0.0837 
    104 H104      -73.0247   22.1326  -77.9162 H         1 UNK         0.0837 
    105 H105      -74.6360   21.8128  -78.5366 H         1 UNK         0.0837 
    106 H106      -75.8565   23.9133  -76.6690 H         1 UNK         0.3020 
    107 H107      -74.5793   22.5939  -73.7835 H         1 UNK         0.1245 
    108 H108      -73.6047   24.8843  -73.2353 H         1 UNK         0.0781 
    109 H109      -75.1149   25.6112  -73.7042 H         1 UNK         0.0781 
    110 H110      -77.2839   25.1416  -70.5571 H         1 UNK         0.0836 
    111 H111      -77.5420   24.7913  -72.2424 H         1 UNK         0.0836 
    112 H112      -76.9561   24.1614  -74.3212 H         1 UNK         0.3022 
    113 H113      -78.6955   21.8490  -76.1883 H         1 UNK         0.0747 
    114 H114      -80.4039   21.7167  -74.3842 H         1 UNK         0.0793 
    115 H115      -79.0487   20.6660  -74.0121 H         1 UNK         0.0793 
    116 H116      -79.2083   22.2072  -73.1820 H         1 UNK         0.0793 
    117 H117      -79.6581   24.0934  -74.7620 H         1 UNK         0.3047 
    118 H118      -78.3832   26.5785  -75.6625 H         1 UNK         0.0822 
    119 H119      -79.4144   27.8018  -77.5856 H         1 UNK         0.0807 
    120 H120      -79.6735   26.2667  -78.4142 H         1 UNK         0.0807 
    121 H121      -78.0432   26.8200  -78.0712 H         1 UNK         0.0807 
    122 H122      -80.4233   26.6843  -74.7882 H         1 UNK         0.2946 
    123 H123      -83.5711   26.4185  -75.8756 H         1 UNK         0.1144 
    124 H124      -84.3042   24.7997  -74.1317 H         1 UNK         0.0793 
    125 H125      -82.6685   24.1489  -74.0146 H         1 UNK         0.0793 
    126 H126      -83.5984   23.9485  -75.4926 H         1 UNK         0.0793 
    127 H127      -82.6687   26.4772  -73.1704 H         1 UNK         0.2896 
@<TRIPOS>BOND
     1    1    2 1    
     2    1   67 1    
     3    1   68 1    
     4    1   69 1    
     5    2    3 2    
     6    2    4 am   BACKBONE|DICT|INTERRES
     7    4    5 1    
     8    4   70 1    
     9    5    6 1    
    10    5   65 1    
    11    5   71 1    
    12    6    7 1    
    13    6   72 1    
    14    6   73 1    
    15    7    8 1    
    16    8    9 1    
    17    8   74 1    
    18    8   75 1    
    19    9   10 ar   
    20    9   14 ar   
    21   10   11 ar   
    22   10   76 1    
    23   11   12 ar   
    24   11   48 1    
    25   12   13 ar   
    26   12   77 1    
    27   13   14 ar   
    28   13   15 1    
    29   14   78 1    
    30   15   16 1    
    31   15   79 1    
    32   15   80 1    
    33   16   17 1    
    34   17   18 1    
    35   17   81 1    
    36   17   82 1    
    37   18   19 1    
    38   18   22 1    
    39   18   83 1    
    40   19   20 am   BACKBONE|DICT|INTERRES
    41   19   21 2    
    42   20   84 1    
    43   20   85 1    
    44   22   23 am   BACKBONE|DICT|INTERRES
    45   22   86 1    
    46   23   24 2    
    47   23   25 1    
    48   25   26 1    
    49   25   27 1    
    50   25   87 1    
    51   26   88 1    
    52   26   89 1    
    53   26   90 1    
    54   27   28 am   BACKBONE|DICT|INTERRES
    55   27   91 1    
    56   28   29 2    
    57   28   30 1    
    58   30   31 1    
    59   30   32 1    
    60   30   92 1    
    61   31   93 1    
    62   31   94 1    
    63   31   95 1    
    64   32   33 am   BACKBONE|DICT|INTERRES
    65   32   96 1    
    66   33   34 2    
    67   33   35 1    
    68   35   36 1    
    69   35   37 1    
    70   35   97 1    
    71   36   98 1    
    72   36   99 1    
    73   36  100 1    
    74   37   38 am   BACKBONE|DICT|INTERRES
    75   37  101 1    
    76   38   39 2    
    77   38   40 1    
    78   40   41 1    
    79   40   42 1    
    80   40  102 1    
    81   41  103 1    
    82   41  104 1    
    83   41  105 1    
    84   42   43 am   BACKBONE|DICT|INTERRES
    85   42  106 1    
    86   43   44 2    
    87   43   45 1    
    88   45   46 1    
    89   45   49 1    
    90   45  107 1    
    91   46   47 1    
    92   46  108 1    
    93   46  109 1    
    94   47   48 1    
    95   48  110 1    
    96   48  111 1    
    97   49   50 am   BACKBONE|DICT|INTERRES
    98   49  112 1    
    99   50   51 2    
   100   50   52 1    
   101   52   53 1    
   102   52   54 1    
   103   52  113 1    
   104   53  114 1    
   105   53  115 1    
   106   53  116 1    
   107   54   55 am   BACKBONE|DICT|INTERRES
   108   54  117 1    
   109   55   56 2    
   110   55   57 1    
   111   57   58 1    
   112   57   59 1    
   113   57  118 1    
   114   58  119 1    
   115   58  120 1    
   116   58  121 1    
   117   59   60 am   BACKBONE|DICT|INTERRES
   118   59  122 1    
   119   60   61 2    
   120   60   62 1    
   121   62   63 1    
   122   62   64 1    
   123   62  123 1    
   124   63  124 1    
   125   63  125 1    
   126   63  126 1    
   127   64   65 am   BACKBONE|DICT|INTERRES
   128   64  127 1    
   129   65   66 2    
@<TRIPOS>SUBSTRUCTURE
     1 UNK         1 GROUP             0       ****    0 ROOT    
