@<TRIPOS>MOLECULE
3R135
127   129    1
SMALL
USER_CHARGES


@<TRIPOS>ATOM
      1 CA        -80.5773   28.0502  -77.8320 C.3       0 UNK        -0.1998 
      2 C         -80.2685   27.6630  -76.3942 C.2       0 UNK         0.4909 
      3 O         -79.1077   27.4348  -76.0615 O.2       0 UNK        -0.5240 
      4 N         -81.2983   27.5834  -75.5478 N.am      1 UNK        -0.4739 
      5 CA        -81.2146   27.1588  -74.1458 C.3       1 UNK         0.0864 
      6 C6        -82.1440   28.0266  -73.2518 C.3       11 UNK        -0.0881 
      7 S7        -81.6822   29.7939  -73.2474 S.3       11 UNK        -0.2682 
      8 C8        -80.9928   30.0103  -71.5742 C.3       11 UNK         0.0289 
      9 C9        -79.5543   29.5216  -71.4855 C.ar      11 UNK        -0.0687 
     10 C10       -79.2760   28.1885  -71.1691 C.ar      11 UNK        -0.0823 
     11 C11       -77.9550   27.7400  -71.1031 C.ar      11 UNK        -0.0830 
     12 C12       -76.9097   28.6464  -71.3022 C.ar      11 UNK        -0.1021 
     13 C13       -77.1689   29.9794  -71.6371 C.ar      11 UNK        -0.0753 
     14 C14       -78.4980   30.4081  -71.7228 C.ar      11 UNK        -0.0933 
     15 C15       -76.0344   30.9683  -71.9064 C.3       11 UNK         0.0166 
     16 S16       -74.7169   30.3032  -72.9867 S.3       11 UNK        -0.2615 
     17 C17       -73.5343   29.6327  -71.7633 C.3       11 UNK        -0.0865 
     18 CA        -72.2213   30.4679  -71.6838 C.3       10 UNK         0.0862 
     19 C         -71.3734   30.1470  -70.4120 C.2       10 UNK         0.5551 
     20 N         -70.0509   30.2550  -70.4564 N.am      10 UNK        -0.7319 
     21 O         -71.9191   29.8310  -69.3574 O.2       10 UNK        -0.5018 
     22 N         -71.4597   30.4683  -72.9500 N.am      10 UNK        -0.4509 
     23 C         -70.8720   29.4047  -73.5142 C.2       10 UNK         0.4899 
     24 O         -70.8887   28.2677  -73.0365 O.2       10 UNK        -0.4839 
     25 CA        -70.0803   29.6726  -74.8067 C.3       9 UNK         0.0222 
     26 CB        -68.6314   30.0686  -74.4767 C.3       9 UNK        -0.1966 
     27 N         -70.0683   28.4881  -75.6682 N.am      9 UNK        -0.4218 
     28 C         -71.1166   28.0812  -76.3941 C.2       9 UNK         0.5020 
     29 O         -72.1434   28.7511  -76.5327 O.2       9 UNK        -0.5274 
     30 CA        -70.9851   26.7063  -77.0747 C.3       8 UNK         0.0270 
     31 CB        -70.7204   25.5901  -76.0464 C.3       8 UNK        -0.1976 
     32 N         -72.2285   26.3974  -77.7750 N.am      8 UNK        -0.4313 
     33 C         -72.3584   26.0917  -79.0718 C.2       8 UNK         0.5041 
     34 O         -71.4043   25.9308  -79.8349 O.2       8 UNK        -0.5577 
     35 CA        -73.7924   25.9396  -79.6253 C.3       7 UNK         0.0284 
     36 CB        -74.1505   24.4538  -79.7888 C.3       7 UNK        -0.1958 
     37 N         -74.8067   26.5883  -78.7885 N.am      7 UNK        -0.4454 
     38 C         -74.9088   27.9151  -78.6164 C.2       7 UNK         0.5089 
     39 O         -74.2957   28.7320  -79.3050 O.2       7 UNK        -0.5125 
     40 CA        -75.8176   28.4330  -77.4825 C.3       6 UNK         0.0408 
     41 CB        -77.0280   29.1799  -78.0646 C.3       6 UNK        -0.1791 
     42 N         -76.2963   27.4157  -76.5395 N.am      6 UNK        -0.4762 
     43 C         -75.5452   26.6250  -75.7569 C.2       6 UNK         0.5007 
     44 O         -74.3155   26.6293  -75.7478 O.2       6 UNK        -0.5032 
     45 CA        -76.3015   25.6211  -74.8662 C.3       5 UNK         0.0783 
     46 C46       -76.6844   26.3075  -73.5342 C.3       11 UNK        -0.0857 
     47 S47       -77.7511   25.3111  -72.4302 S.3       11 UNK        -0.2512 
     48 C48       -77.6473   26.2659  -70.8763 C.3       11 UNK         0.0225 
     49 N         -77.4722   25.0302  -75.5159 N.am      5 UNK        -0.4615 
     50 C         -77.5515   24.4316  -76.7107 C.2       4 UNK         0.5053 
     51 O         -76.6218   24.3610  -77.5166 O.2       4 UNK        -0.5105 
     52 CA        -78.9171   23.7822  -77.0150 C.3       4 UNK         0.0263 
     53 CB        -78.8977   22.8810  -78.2677 C.3       4 UNK        -0.1981 
     54 N         -79.4416   23.0659  -75.8401 N.am      4 UNK        -0.4224 
     55 C         -78.8442   22.0483  -75.1924 C.2       3 UNK         0.4895 
     56 O         -77.8437   21.4652  -75.6124 O.2       3 UNK        -0.5091 
     57 CA        -79.4223   21.6336  -73.8268 C.3       3 UNK         0.0250 
     58 CB        -78.3074   21.2790  -72.8240 C.3       3 UNK        -0.1996 
     59 N         -80.2490   22.6915  -73.2410 N.am      3 UNK        -0.4254 
     60 C         -81.5740   22.6227  -73.0742 C.2       2 UNK         0.5004 
     61 O         -82.2615   21.6518  -73.3927 O.2       2 UNK        -0.5226 
     62 CA        -82.2554   23.8510  -72.4494 C.3       2 UNK         0.0269 
     63 CB        -82.2985   23.7139  -70.9186 C.3       2 UNK        -0.1926 
     64 N         -81.6613   25.1495  -72.7966 N.am      2 UNK        -0.4687 
     65 C         -81.5688   25.6562  -74.0357 C.2       1 UNK         0.5165 
     66 O         -81.7745   24.9864  -75.0522 O.2       1 UNK        -0.5079 
     67 H67       -80.1240   27.3355  -78.5182 H         1 UNK         0.0900 
     68 H68       -80.1724   29.0382  -78.0486 H         1 UNK         0.0900 
     69 H69       -81.6495   28.0717  -78.0261 H         1 UNK         0.0900 
     70 H70       -82.2329   27.7492  -75.8918 H         1 UNK         0.2959 
     71 H71       -80.1880   27.2704  -73.7889 H         1 UNK         0.1079 
     72 H72       -82.1587   27.6733  -72.2207 H         1 UNK         0.0837 
     73 H73       -83.1767   27.9532  -73.5984 H         1 UNK         0.0837 
     74 H74       -81.0354   31.0702  -71.3186 H         1 UNK         0.0685 
     75 H75       -81.6179   29.5022  -70.8385 H         1 UNK         0.0685 
     76 H76       -80.0848   27.4935  -70.9976 H         1 UNK         0.1434 
     77 H77       -75.8913   28.2935  -71.2427 H         1 UNK         0.1329 
     78 H78       -78.7151   31.4366  -71.9775 H         1 UNK         0.1335 
     79 H79       -75.6137   31.3070  -70.9588 H         1 UNK         0.0680 
     80 H80       -76.4311   31.8602  -72.3938 H         1 UNK         0.0680 
     81 H81       -73.3177   28.5945  -72.0181 H         1 UNK         0.1032 
     82 H82       -74.0240   29.5976  -70.7892 H         1 UNK         0.1032 
     83 H83       -72.5197   31.5064  -71.5354 H         1 UNK         0.0461 
     84 H84       -69.5894   30.5248  -71.3096 H         1 UNK         0.3453 
     85 H85       -69.5109   30.0583  -69.6284 H         1 UNK         0.3453 
     86 H86       -71.3768   31.3664  -73.4046 H         1 UNK         0.2984 
     87 H87       -70.5514   30.4965  -75.3474 H         1 UNK         0.0554 
     88 H88       -68.0582   30.2689  -75.3822 H         1 UNK         0.0847 
     89 H89       -68.1147   29.2866  -73.9183 H         1 UNK         0.0847 
     90 H90       -68.6009   30.9752  -73.8711 H         1 UNK         0.0847 
     91 H91       -69.2730   27.8729  -75.5773 H         1 UNK         0.3141 
     92 H92       -70.1509   26.7593  -77.7772 H         1 UNK         0.0743 
     93 H93       -70.6942   24.6110  -76.5251 H         1 UNK         0.0784 
     94 H94       -69.7625   25.7249  -75.5433 H         1 UNK         0.0784 
     95 H95       -71.4941   25.5641  -75.2771 H         1 UNK         0.0784 
     96 H96       -73.0671   26.5725  -77.2240 H         1 UNK         0.3213 
     97 H97       -73.8148   26.4092  -80.6110 H         1 UNK         0.0855 
     98 H98       -74.1401   23.9302  -78.8319 H         1 UNK         0.0814 
     99 H99       -73.4393   23.9500  -80.4448 H         1 UNK         0.0814 
    100 H100      -75.1410   24.3291  -80.2268 H         1 UNK         0.0814 
    101 H101      -75.3749   25.9798  -78.2082 H         1 UNK         0.3105 
    102 H102      -75.2235   29.1448  -76.9058 H         1 UNK         0.0547 
    103 H103      -77.6682   28.5123  -78.6419 H         1 UNK         0.0837 
    104 H104      -77.6323   29.6308  -77.2773 H         1 UNK         0.0837 
    105 H105      -76.7117   29.9851  -78.7290 H         1 UNK         0.0837 
    106 H106      -77.3085   27.3367  -76.4404 H         1 UNK         0.3020 
    107 H107      -75.6161   24.7993  -74.6493 H         1 UNK         0.1245 
    108 H108      -75.7784   26.5799  -72.9895 H         1 UNK         0.0781 
    109 H109      -77.2161   27.2400  -73.7388 H         1 UNK         0.0781 
    110 H110      -78.3444   25.8456  -70.1500 H         1 UNK         0.0836 
    111 H111      -76.6511   26.1454  -70.4477 H         1 UNK         0.0836 
    112 H112      -78.3115   25.0645  -74.9590 H         1 UNK         0.3022 
    113 H113      -79.6096   24.6027  -77.2096 H         1 UNK         0.0747 
    114 H114      -79.8769   22.4405  -78.4544 H         1 UNK         0.0793 
    115 H115      -78.6254   23.4555  -79.1539 H         1 UNK         0.0793 
    116 H116      -78.1754   22.0695  -78.1757 H         1 UNK         0.0793 
    117 H117      -80.2812   23.4634  -75.4321 H         1 UNK         0.3047 
    118 H118      -80.0152   20.7336  -74.0017 H         1 UNK         0.0822 
    119 H119      -78.7209   20.9926  -71.8569 H         1 UNK         0.0807 
    120 H120      -77.6285   22.1175  -72.6632 H         1 UNK         0.0807 
    121 H121      -77.7100   20.4379  -73.1781 H         1 UNK         0.0807 
    122 H122      -79.7699   23.5304  -72.9430 H         1 UNK         0.2946 
    123 H123      -83.2838   23.8587  -72.8181 H         1 UNK         0.1144 
    124 H124      -82.8900   24.5088  -70.4639 H         1 UNK         0.0793 
    125 H125      -81.2993   23.7450  -70.4819 H         1 UNK         0.0793 
    126 H126      -82.7535   22.7672  -70.6230 H         1 UNK         0.0793 
    127 H127      -81.4406   25.7475  -72.0147 H         1 UNK         0.2896 
@<TRIPOS>BOND
     1    1    2 1    
     2    1   67 1    
     3    1   68 1    
     4    1   69 1    
     5    2    3 2    
     6    2    4 am   BACKBONE|DICT|INTERRES
     7    4    5 1    
     8    4   70 1    
     9    5    6 1    
    10    5   65 1    
    11    5   71 1    
    12    6    7 1    
    13    6   72 1    
    14    6   73 1    
    15    7    8 1    
    16    8    9 1    
    17    8   74 1    
    18    8   75 1    
    19    9   10 ar   
    20    9   14 ar   
    21   10   11 ar   
    22   10   76 1    
    23   11   12 ar   
    24   11   48 1    
    25   12   13 ar   
    26   12   77 1    
    27   13   14 ar   
    28   13   15 1    
    29   14   78 1    
    30   15   16 1    
    31   15   79 1    
    32   15   80 1    
    33   16   17 1    
    34   17   18 1    
    35   17   81 1    
    36   17   82 1    
    37   18   19 1    
    38   18   22 1    
    39   18   83 1    
    40   19   20 am   BACKBONE|DICT|INTERRES
    41   19   21 2    
    42   20   84 1    
    43   20   85 1    
    44   22   23 am   BACKBONE|DICT|INTERRES
    45   22   86 1    
    46   23   24 2    
    47   23   25 1    
    48   25   26 1    
    49   25   27 1    
    50   25   87 1    
    51   26   88 1    
    52   26   89 1    
    53   26   90 1    
    54   27   28 am   BACKBONE|DICT|INTERRES
    55   27   91 1    
    56   28   29 2    
    57   28   30 1    
    58   30   31 1    
    59   30   32 1    
    60   30   92 1    
    61   31   93 1    
    62   31   94 1    
    63   31   95 1    
    64   32   33 am   BACKBONE|DICT|INTERRES
    65   32   96 1    
    66   33   34 2    
    67   33   35 1    
    68   35   36 1    
    69   35   37 1    
    70   35   97 1    
    71   36   98 1    
    72   36   99 1    
    73   36  100 1    
    74   37   38 am   BACKBONE|DICT|INTERRES
    75   37  101 1    
    76   38   39 2    
    77   38   40 1    
    78   40   41 1    
    79   40   42 1    
    80   40  102 1    
    81   41  103 1    
    82   41  104 1    
    83   41  105 1    
    84   42   43 am   BACKBONE|DICT|INTERRES
    85   42  106 1    
    86   43   44 2    
    87   43   45 1    
    88   45   46 1    
    89   45   49 1    
    90   45  107 1    
    91   46   47 1    
    92   46  108 1    
    93   46  109 1    
    94   47   48 1    
    95   48  110 1    
    96   48  111 1    
    97   49   50 am   BACKBONE|DICT|INTERRES
    98   49  112 1    
    99   50   51 2    
   100   50   52 1    
   101   52   53 1    
   102   52   54 1    
   103   52  113 1    
   104   53  114 1    
   105   53  115 1    
   106   53  116 1    
   107   54   55 am   BACKBONE|DICT|INTERRES
   108   54  117 1    
   109   55   56 2    
   110   55   57 1    
   111   57   58 1    
   112   57   59 1    
   113   57  118 1    
   114   58  119 1    
   115   58  120 1    
   116   58  121 1    
   117   59   60 am   BACKBONE|DICT|INTERRES
   118   59  122 1    
   119   60   61 2    
   120   60   62 1    
   121   62   63 1    
   122   62   64 1    
   123   62  123 1    
   124   63  124 1    
   125   63  125 1    
   126   63  126 1    
   127   64   65 am   BACKBONE|DICT|INTERRES
   128   64  127 1    
   129   65   66 2    
@<TRIPOS>SUBSTRUCTURE
     1 UNK         1 GROUP             0       ****    0 ROOT    
