@<TRIPOS>MOLECULE
3R135
127   129    1
SMALL
USER_CHARGES


@<TRIPOS>ATOM
      1 CA        -83.1706   24.9992  -71.3593 C.3       0 UNK        -0.1998 
      2 C         -83.3984   26.2932  -72.1375 C.2       0 UNK         0.4909 
      3 O         -84.5521   26.6695  -72.3356 O.2       0 UNK        -0.5240 
      4 N         -82.3675   27.0186  -72.6000 N.am      1 UNK        -0.4739 
      5 CA        -80.9195   26.7574  -72.5103 C.3       1 UNK         0.0864 
      6 C6        -80.3499   26.7076  -71.0633 C.3       11 UNK        -0.0881 
      7 S7        -80.8053   28.1663  -70.0639 S.3       11 UNK        -0.2682 
      8 C8        -79.1926   28.9956  -69.8229 C.3       11 UNK         0.0289 
      9 C9        -78.5863   29.6499  -71.0673 C.ar      11 UNK        -0.0687 
     10 C10       -79.3703   30.0814  -72.1447 C.ar      11 UNK        -0.0823 
     11 C11       -78.7846   30.6937  -73.2558 C.ar      11 UNK        -0.0830 
     12 C12       -77.4057   30.9148  -73.2655 C.ar      11 UNK        -0.1021 
     13 C13       -76.6011   30.4999  -72.2024 C.ar      11 UNK        -0.0753 
     14 C14       -77.2037   29.8644  -71.1071 C.ar      11 UNK        -0.0933 
     15 C15       -75.0982   30.7686  -72.3101 C.3       11 UNK         0.0166 
     16 S16       -74.0965   30.4416  -70.8188 S.3       11 UNK        -0.2615 
     17 C17       -73.9240   28.6261  -70.8683 C.3       11 UNK        -0.0865 
     18 CA        -72.6035   28.1848  -71.5500 C.3       10 UNK         0.0862 
     19 C         -72.2849   26.7042  -71.2234 C.2       10 UNK         0.5551 
     20 N         -71.4140   26.4563  -70.2553 N.am      10 UNK        -0.7319 
     21 O         -72.8494   25.7816  -71.8069 O.2       10 UNK        -0.5018 
     22 N         -72.6860   28.3567  -73.0023 N.am      10 UNK        -0.4509 
     23 C         -71.7463   28.8823  -73.7899 C.2       10 UNK         0.4899 
     24 O         -70.7089   29.4070  -73.3804 O.2       10 UNK        -0.4839 
     25 CA        -72.0243   28.7605  -75.3011 C.3       9 UNK         0.0222 
     26 CB        -70.9758   29.4845  -76.1722 C.3       9 UNK        -0.1966 
     27 N         -72.1729   27.3573  -75.7145 N.am      9 UNK        -0.4218 
     28 C         -71.2682   26.3732  -75.5815 C.2       9 UNK         0.5020 
     29 O         -70.1357   26.5304  -75.1228 O.2       9 UNK        -0.5274 
     30 CA        -71.6810   24.9625  -76.0354 C.3       8 UNK         0.0270 
     31 CB        -72.0504   24.0858  -74.8299 C.3       8 UNK        -0.1976 
     32 N         -72.7713   24.9352  -77.0167 N.am      8 UNK        -0.4313 
     33 C         -72.5941   25.2040  -78.3169 C.2       8 UNK         0.5041 
     34 O         -71.5442   25.6460  -78.7860 O.2       8 UNK        -0.5577 
     35 CA        -73.7553   24.8873  -79.2642 C.3       7 UNK         0.0284 
     36 CB        -74.0053   23.3698  -79.3463 C.3       7 UNK        -0.1958 
     37 N         -74.9959   25.5674  -78.8835 N.am      7 UNK        -0.4454 
     38 C         -75.7017   26.3357  -79.7245 C.2       7 UNK         0.5089 
     39 O         -75.3125   26.6606  -80.8475 O.2       7 UNK        -0.5125 
     40 CA        -77.1026   26.7868  -79.2853 C.3       6 UNK         0.0408 
     41 CB        -78.1538   25.7616  -79.7405 C.3       6 UNK        -0.1791 
     42 N         -77.2591   27.0191  -77.8511 N.am      6 UNK        -0.4762 
     43 C         -76.8003   28.0974  -77.2010 C.2       6 UNK         0.5007 
     44 O         -76.0212   28.9165  -77.6890 O.2       6 UNK        -0.5032 
     45 CA        -77.3314   28.2966  -75.7699 C.3       5 UNK         0.0783 
     46 C46       -78.8207   28.7363  -75.7705 C.3       11 UNK        -0.0857 
     47 S47       -79.0092   30.5298  -76.0493 S.3       11 UNK        -0.2512 
     48 C48       -79.6479   31.1168  -74.4404 C.3       11 UNK         0.0225 
     49 N         -77.1377   27.0761  -74.9929 N.am      5 UNK        -0.4615 
     50 C         -76.0107   26.7647  -74.3418 C.2       4 UNK         0.5053 
     51 O         -75.0345   27.5081  -74.2649 O.2       4 UNK        -0.5105 
     52 CA        -75.9446   25.3714  -73.6964 C.3       4 UNK         0.0263 
     53 CB        -76.3918   25.4291  -72.2290 C.3       4 UNK        -0.1981 
     54 N         -76.7330   24.3770  -74.4303 N.am      4 UNK        -0.4224 
     55 C         -76.4231   23.9502  -75.6651 C.2       3 UNK         0.4895 
     56 O         -75.4117   24.3047  -76.2732 O.2       3 UNK        -0.5091 
     57 CA        -77.4165   23.0122  -76.3731 C.3       3 UNK         0.0250 
     58 CB        -76.9848   21.5486  -76.1954 C.3       3 UNK        -0.1996 
     59 N         -78.8110   23.1672  -75.9450 N.am      3 UNK        -0.4254 
     60 C         -79.5297   24.2953  -76.0369 C.2       2 UNK         0.5004 
     61 O         -79.0831   25.3497  -76.4930 O.2       2 UNK        -0.5226 
     62 CA        -80.9705   24.2772  -75.4900 C.3       2 UNK         0.0269 
     63 CB        -81.4147   22.9176  -74.9020 C.3       2 UNK        -0.1926 
     64 N         -81.1840   25.3481  -74.5077 N.am      2 UNK        -0.4687 
     65 C         -80.4812   25.5597  -73.3828 C.2       1 UNK         0.5165 
     66 O         -79.5413   24.8478  -73.0264 O.2       1 UNK        -0.5079 
     67 H67       -82.3584   24.3986  -71.7621 H         1 UNK         0.0900 
     68 H68       -82.9598   25.2225  -70.3141 H         1 UNK         0.0900 
     69 H69       -84.0683   24.3820  -71.3892 H         1 UNK         0.0900 
     70 H70       -82.5995   27.8722  -73.0884 H         1 UNK         0.2959 
     71 H71       -80.4508   27.6149  -72.9908 H         1 UNK         0.1079 
     72 H72       -80.6794   25.8122  -70.5370 H         1 UNK         0.0837 
     73 H73       -79.2624   26.6402  -71.0908 H         1 UNK         0.0837 
     74 H74       -79.3213   29.7700  -69.0657 H         1 UNK         0.0685 
     75 H75       -78.4927   28.2714  -69.4026 H         1 UNK         0.0685 
     76 H76       -80.4420   29.9448  -72.1225 H         1 UNK         0.1434 
     77 H77       -76.9528   31.4035  -74.1177 H         1 UNK         0.1329 
     78 H78       -76.6061   29.5421  -70.2672 H         1 UNK         0.1335 
     79 H79       -74.9563   31.8191  -72.5679 H         1 UNK         0.0680 
     80 H80       -74.6985   30.1957  -73.1470 H         1 UNK         0.0680 
     81 H81       -74.7871   28.1817  -71.3662 H         1 UNK         0.1032 
     82 H82       -73.9589   28.2774  -69.8342 H         1 UNK         0.1032 
     83 H83       -71.7918   28.7984  -71.1535 H         1 UNK         0.0461 
     84 H84       -70.9534   27.2054  -69.7620 H         1 UNK         0.3453 
     85 H85       -71.2069   25.4987  -70.0186 H         1 UNK         0.3453 
     86 H86       -73.5009   27.9334  -73.4445 H         1 UNK         0.2984 
     87 H87       -72.9883   29.2393  -75.4815 H         1 UNK         0.0554 
     88 H88       -70.9288   30.5450  -75.9222 H         1 UNK         0.0847 
     89 H89       -71.2224   29.4111  -77.2314 H         1 UNK         0.0847 
     90 H90       -69.9752   29.0744  -76.0325 H         1 UNK         0.0847 
     91 H91       -73.0840   27.1024  -76.0691 H         1 UNK         0.3141 
     92 H92       -70.8019   24.5124  -76.5024 H         1 UNK         0.0743 
     93 H93       -72.8886   24.5001  -74.2761 H         1 UNK         0.0784 
     94 H94       -72.3126   23.0727  -75.1350 H         1 UNK         0.0784 
     95 H95       -71.2142   24.0103  -74.1333 H         1 UNK         0.0784 
     96 H96       -73.6794   24.5967  -76.6998 H         1 UNK         0.3213 
     97 H97       -73.4313   25.2104  -80.2559 H         1 UNK         0.0855 
     98 H98       -74.3623   22.9596  -78.4012 H         1 UNK         0.0814 
     99 H99       -73.0905   22.8366  -79.6088 H         1 UNK         0.0814 
    100 H100      -74.7462   23.1347  -80.1105 H         1 UNK         0.0814 
    101 H101      -75.3685   25.3585  -77.9629 H         1 UNK         0.3105 
    102 H102      -77.3152   27.7274  -79.7984 H         1 UNK         0.0547 
    103 H103      -79.1648   26.1049  -79.5202 H         1 UNK         0.0837 
    104 H104      -78.0154   24.7968  -79.2520 H         1 UNK         0.0837 
    105 H105      -78.0969   25.5935  -80.8168 H         1 UNK         0.0837 
    106 H106      -77.9011   26.3968  -77.3613 H         1 UNK         0.3020 
    107 H107      -76.7359   29.0880  -75.3093 H         1 UNK         0.1245 
    108 H108      -79.2813   28.4887  -74.8152 H         1 UNK         0.0781 
    109 H109      -79.4078   28.1958  -76.5157 H         1 UNK         0.0781 
    110 H110      -80.6703   30.7542  -74.3233 H         1 UNK         0.0836 
    111 H111      -79.7089   32.2056  -74.4612 H         1 UNK         0.0836 
    112 H112      -77.8612   26.3734  -75.0777 H         1 UNK         0.3022 
    113 H113      -74.9059   25.0472  -73.7090 H         1 UNK         0.0747 
    114 H114      -76.4494   24.4348  -71.7864 H         1 UNK         0.0793 
    115 H115      -75.6840   26.0051  -71.6335 H         1 UNK         0.0793 
    116 H116      -77.3638   25.9059  -72.1218 H         1 UNK         0.0793 
    117 H117      -77.6036   24.0801  -74.0060 H         1 UNK         0.3047 
    118 H118      -77.3745   23.2502  -77.4377 H         1 UNK         0.0822 
    119 H119      -77.6130   20.8751  -76.7786 H         1 UNK         0.0807 
    120 H120      -77.0340   21.2365  -75.1513 H         1 UNK         0.0807 
    121 H121      -75.9573   21.4010  -76.5317 H         1 UNK         0.0807 
    122 H122      -79.2501   22.3560  -75.5342 H         1 UNK         0.2946 
    123 H123      -81.6145   24.4981  -76.3429 H         1 UNK         0.1144 
    124 H124      -80.8078   22.6173  -74.0467 H         1 UNK         0.0793 
    125 H125      -81.3605   22.1241  -75.6485 H         1 UNK         0.0793 
    126 H126      -82.4508   22.9610  -74.5655 H         1 UNK         0.0793 
    127 H127      -81.9288   25.9964  -74.7234 H         1 UNK         0.2896 
@<TRIPOS>BOND
     1    1    2 1    
     2    1   67 1    
     3    1   68 1    
     4    1   69 1    
     5    2    3 2    
     6    2    4 am   BACKBONE|DICT|INTERRES
     7    4    5 1    
     8    4   70 1    
     9    5    6 1    
    10    5   65 1    
    11    5   71 1    
    12    6    7 1    
    13    6   72 1    
    14    6   73 1    
    15    7    8 1    
    16    8    9 1    
    17    8   74 1    
    18    8   75 1    
    19    9   10 ar   
    20    9   14 ar   
    21   10   11 ar   
    22   10   76 1    
    23   11   12 ar   
    24   11   48 1    
    25   12   13 ar   
    26   12   77 1    
    27   13   14 ar   
    28   13   15 1    
    29   14   78 1    
    30   15   16 1    
    31   15   79 1    
    32   15   80 1    
    33   16   17 1    
    34   17   18 1    
    35   17   81 1    
    36   17   82 1    
    37   18   19 1    
    38   18   22 1    
    39   18   83 1    
    40   19   20 am   BACKBONE|DICT|INTERRES
    41   19   21 2    
    42   20   84 1    
    43   20   85 1    
    44   22   23 am   BACKBONE|DICT|INTERRES
    45   22   86 1    
    46   23   24 2    
    47   23   25 1    
    48   25   26 1    
    49   25   27 1    
    50   25   87 1    
    51   26   88 1    
    52   26   89 1    
    53   26   90 1    
    54   27   28 am   BACKBONE|DICT|INTERRES
    55   27   91 1    
    56   28   29 2    
    57   28   30 1    
    58   30   31 1    
    59   30   32 1    
    60   30   92 1    
    61   31   93 1    
    62   31   94 1    
    63   31   95 1    
    64   32   33 am   BACKBONE|DICT|INTERRES
    65   32   96 1    
    66   33   34 2    
    67   33   35 1    
    68   35   36 1    
    69   35   37 1    
    70   35   97 1    
    71   36   98 1    
    72   36   99 1    
    73   36  100 1    
    74   37   38 am   BACKBONE|DICT|INTERRES
    75   37  101 1    
    76   38   39 2    
    77   38   40 1    
    78   40   41 1    
    79   40   42 1    
    80   40  102 1    
    81   41  103 1    
    82   41  104 1    
    83   41  105 1    
    84   42   43 am   BACKBONE|DICT|INTERRES
    85   42  106 1    
    86   43   44 2    
    87   43   45 1    
    88   45   46 1    
    89   45   49 1    
    90   45  107 1    
    91   46   47 1    
    92   46  108 1    
    93   46  109 1    
    94   47   48 1    
    95   48  110 1    
    96   48  111 1    
    97   49   50 am   BACKBONE|DICT|INTERRES
    98   49  112 1    
    99   50   51 2    
   100   50   52 1    
   101   52   53 1    
   102   52   54 1    
   103   52  113 1    
   104   53  114 1    
   105   53  115 1    
   106   53  116 1    
   107   54   55 am   BACKBONE|DICT|INTERRES
   108   54  117 1    
   109   55   56 2    
   110   55   57 1    
   111   57   58 1    
   112   57   59 1    
   113   57  118 1    
   114   58  119 1    
   115   58  120 1    
   116   58  121 1    
   117   59   60 am   BACKBONE|DICT|INTERRES
   118   59  122 1    
   119   60   61 2    
   120   60   62 1    
   121   62   63 1    
   122   62   64 1    
   123   62  123 1    
   124   63  124 1    
   125   63  125 1    
   126   63  126 1    
   127   64   65 am   BACKBONE|DICT|INTERRES
   128   64  127 1    
   129   65   66 2    
@<TRIPOS>SUBSTRUCTURE
     1 UNK         1 GROUP             0       ****    0 ROOT    
