@<TRIPOS>MOLECULE
3R135
127   129    1
SMALL
USER_CHARGES


@<TRIPOS>ATOM
      1 CA        -76.4464   26.0601  -72.1411 C.3       0 UNK        -0.1998 
      2 C         -77.7747   25.4866  -71.6767 C.2       0 UNK         0.4909 
      3 O         -77.7832   24.5001  -70.9399 O.2       0 UNK        -0.5240 
      4 N         -78.8877   26.0936  -72.1053 N.am      1 UNK        -0.4739 
      5 CA        -80.2519   25.6581  -71.7953 C.3       1 UNK         0.0864 
      6 C6        -81.1230   26.8038  -71.2118 C.3       11 UNK        -0.0881 
      7 S7        -80.4563   27.4386  -69.6358 S.3       11 UNK        -0.2682 
      8 C8        -80.1689   29.1960  -70.0204 C.3       11 UNK         0.0289 
      9 C9        -79.0598   29.3986  -71.0444 C.ar      11 UNK        -0.0687 
     10 C10       -79.3702   29.7360  -72.3661 C.ar      11 UNK        -0.0823 
     11 C11       -78.3576   29.9642  -73.3033 C.ar      11 UNK        -0.0830 
     12 C12       -77.0214   29.8530  -72.9016 C.ar      11 UNK        -0.1021 
     13 C13       -76.6980   29.5156  -71.5844 C.ar      11 UNK        -0.0753 
     14 C14       -77.7206   29.2876  -70.6597 C.ar      11 UNK        -0.0933 
     15 C15       -75.2412   29.4037  -71.1675 C.3       11 UNK         0.0166 
     16 S16       -74.5517   31.0346  -70.7645 S.3       11 UNK        -0.2615 
     17 C17       -72.7676   30.6555  -70.7157 C.3       11 UNK        -0.0865 
     18 CA        -72.0176   31.1314  -71.9929 C.3       10 UNK         0.0862 
     19 C         -70.4729   31.1482  -71.7943 C.2       10 UNK         0.5551 
     20 N         -69.6722   30.7168  -72.7624 N.am      10 UNK        -0.7319 
     21 O         -69.9848   31.5765  -70.7512 O.2       10 UNK        -0.5018 
     22 N         -72.4244   30.3688  -73.1878 N.am      10 UNK        -0.4509 
     23 C         -73.1811   30.8236  -74.1945 C.2       10 UNK         0.4899 
     24 O         -73.6759   31.9510  -74.2208 O.2       10 UNK        -0.4839 
     25 CA        -73.4128   29.8839  -75.3969 C.3       9 UNK         0.0222 
     26 CB        -73.0196   30.5724  -76.7160 C.3       9 UNK        -0.1966 
     27 N         -72.6969   28.6051  -75.3059 N.am      9 UNK        -0.4218 
     28 C         -73.1429   27.5268  -74.6512 C.2       9 UNK         0.5020 
     29 O         -74.2002   27.4927  -74.0251 O.2       9 UNK        -0.5274 
     30 CA        -72.2614   26.2769  -74.7113 C.3       8 UNK         0.0270 
     31 CB        -72.2018   25.5559  -73.3519 C.3       8 UNK        -0.1976 
     32 N         -72.8224   25.3738  -75.7100 N.am      8 UNK        -0.4313 
     33 C         -72.1302   24.7715  -76.6844 C.2       8 UNK         0.5041 
     34 O         -70.9183   24.9117  -76.8551 O.2       8 UNK        -0.5577 
     35 CA        -72.9194   23.8600  -77.6355 C.3       7 UNK         0.0284 
     36 CB        -73.2610   22.5218  -76.9576 C.3       7 UNK        -0.1958 
     37 N         -74.1475   24.5079  -78.0958 N.am      7 UNK        -0.4454 
     38 C         -74.2418   25.2655  -79.1979 C.2       7 UNK         0.5089 
     39 O         -73.3064   25.4642  -79.9738 O.2       7 UNK        -0.5125 
     40 CA        -75.6105   25.9066  -79.5010 C.3       6 UNK         0.0408 
     41 CB        -76.3794   25.0658  -80.5320 C.3       6 UNK        -0.1791 
     42 N         -76.4380   26.0883  -78.3050 N.am      6 UNK        -0.4762 
     43 C         -76.1913   27.0101  -77.3590 C.2       6 UNK         0.5007 
     44 O         -75.2857   27.8369  -77.4561 O.2       6 UNK        -0.5032 
     45 CA        -77.0586   26.9703  -76.0755 C.3       5 UNK         0.0783 
     46 C46       -78.2245   27.9887  -76.1293 C.3       11 UNK        -0.0857 
     47 S47       -77.6687   29.7246  -76.0321 S.3       11 UNK        -0.2512 
     48 C48       -78.7306   30.4081  -74.7161 C.3       11 UNK         0.0225 
     49 N         -77.5485   25.6166  -75.7792 N.am      5 UNK        -0.4615 
     50 C         -76.7568   24.5621  -75.5240 C.2       4 UNK         0.5053 
     51 O         -75.5355   24.6533  -75.4109 O.2       4 UNK        -0.5105 
     52 CA        -77.3927   23.1614  -75.4605 C.3       4 UNK         0.0263 
     53 CB        -77.3574   22.5911  -74.0358 C.3       4 UNK        -0.1981 
     54 N         -78.7567   23.1070  -75.9928 N.am      4 UNK        -0.4224 
     55 C         -79.0534   23.2296  -77.2963 C.2       3 UNK         0.4895 
     56 O         -78.2006   23.3749  -78.1723 O.2       3 UNK        -0.5091 
     57 CA        -80.5404   23.2428  -77.6957 C.3       3 UNK         0.0250 
     58 CB        -80.9934   21.8359  -78.1172 C.3       3 UNK        -0.1996 
     59 N         -81.4437   23.7527  -76.6587 N.am      3 UNK        -0.4254 
     60 C         -81.3806   24.9735  -76.1084 C.2       2 UNK         0.5004 
     61 O         -80.5283   25.8107  -76.4089 O.2       2 UNK        -0.5226 
     62 CA        -82.4044   25.3186  -75.0091 C.3       2 UNK         0.0269 
     63 CB        -83.4401   24.2054  -74.7261 C.3       2 UNK        -0.1926 
     64 N         -81.7376   25.7251  -73.7650 N.am      2 UNK        -0.4687 
     65 C         -80.8408   25.0120  -73.0638 C.2       1 UNK         0.5165 
     66 O         -80.4682   23.8831  -73.3899 O.2       1 UNK        -0.5079 
     67 H67       -75.8538   25.2939  -72.6399 H         1 UNK         0.0900 
     68 H68       -75.8760   26.4276  -71.2894 H         1 UNK         0.0900 
     69 H69       -76.5825   26.8846  -72.8395 H         1 UNK         0.0900 
     70 H70       -78.8116   26.9101  -72.6945 H         1 UNK         0.2959 
     71 H71       -80.2305   24.8634  -71.0461 H         1 UNK         0.1079 
     72 H72       -81.2235   27.6260  -71.9202 H         1 UNK         0.0837 
     73 H73       -82.1353   26.4455  -71.0141 H         1 UNK         0.0837 
     74 H74       -81.1014   29.6473  -70.3631 H         1 UNK         0.0685 
     75 H75       -79.9040   29.7157  -69.0985 H         1 UNK         0.0685 
     76 H76       -80.4053   29.8464  -72.6594 H         1 UNK         0.1434 
     77 H77       -76.2250   30.0460  -73.6072 H         1 UNK         0.1329 
     78 H78       -77.4763   29.0325  -69.6376 H         1 UNK         0.1335 
     79 H79       -75.1358   28.7419  -70.3067 H         1 UNK         0.0680 
     80 H80       -74.6646   28.9553  -71.9753 H         1 UNK         0.0680 
     81 H81       -72.6110   29.5881  -70.5508 H         1 UNK         0.1032 
     82 H82       -72.3724   31.1537  -69.8285 H         1 UNK         0.1032 
     83 H83       -72.2685   32.1829  -72.1428 H         1 UNK         0.0461 
     84 H84       -68.6744   30.7408  -72.6202 H         1 UNK         0.3453 
     85 H85       -70.0465   30.4161  -73.6471 H         1 UNK         0.3453 
     86 H86       -72.0631   29.4290  -73.2498 H         1 UNK         0.2984 
     87 H87       -74.4853   29.6814  -75.4369 H         1 UNK         0.0554 
     88 H88       -73.2343   29.9330  -77.5728 H         1 UNK         0.0847 
     89 H89       -71.9598   30.8281  -76.7407 H         1 UNK         0.0847 
     90 H90       -73.5822   31.4956  -76.8606 H         1 UNK         0.0847 
     91 H91       -71.8248   28.5401  -75.8117 H         1 UNK         0.3141 
     92 H92       -71.2478   26.5789  -74.9833 H         1 UNK         0.0743 
     93 H93       -73.1842   25.1980  -73.0403 H         1 UNK         0.0784 
     94 H94       -71.5321   24.6967  -73.3911 H         1 UNK         0.0784 
     95 H95       -71.8328   26.2221  -72.5712 H         1 UNK         0.0784 
     96 H96       -73.8255   25.2034  -75.6305 H         1 UNK         0.3213 
     97 H97       -72.2814   23.6409  -78.4948 H         1 UNK         0.0855 
     98 H98       -73.8868   22.6544  -76.0747 H         1 UNK         0.0814 
     99 H99       -72.3538   22.0080  -76.6367 H         1 UNK         0.0814 
    100 H100      -73.7853   21.8544  -77.6417 H         1 UNK         0.0814 
    101 H101      -74.9493   24.4481  -77.4823 H         1 UNK         0.3105 
    102 H102      -75.4253   26.8892  -79.9404 H         1 UNK         0.0547 
    103 H103      -75.8162   24.9824  -81.4624 H         1 UNK         0.0837 
    104 H104      -76.5617   24.0524  -80.1730 H         1 UNK         0.0837 
    105 H105      -77.3421   25.5148  -80.7758 H         1 UNK         0.0837 
    106 H106      -77.1849   25.4187  -78.1616 H         1 UNK         0.3020 
    107 H107      -76.4054   27.2550  -75.2496 H         1 UNK         0.1245 
    108 H108      -78.9097   27.8025  -75.3008 H         1 UNK         0.0781 
    109 H109      -78.8147   27.8589  -77.0384 H         1 UNK         0.0781 
    110 H110      -79.7686   30.1571  -74.9409 H         1 UNK         0.0836 
    111 H111      -78.6649   31.4960  -74.7557 H         1 UNK         0.0836 
    112 H112      -78.5465   25.4720  -75.8936 H         1 UNK         0.3022 
    113 H113      -76.7699   22.5141  -76.0821 H         1 UNK         0.0747 
    114 H114      -77.6832   21.5512  -74.0180 H         1 UNK         0.0793 
    115 H115      -76.3470   22.6207  -73.6254 H         1 UNK         0.0793 
    116 H116      -77.9987   23.1512  -73.3588 H         1 UNK         0.0793 
    117 H117      -79.5096   23.0479  -75.3172 H         1 UNK         0.3047 
    118 H118      -80.6326   23.9045  -78.5596 H         1 UNK         0.0822 
    119 H119      -82.0126   21.8451  -78.5039 H         1 UNK         0.0807 
    120 H120      -80.9548   21.1325  -77.2844 H         1 UNK         0.0807 
    121 H121      -80.3536   21.4404  -78.9076 H         1 UNK         0.0807 
    122 H122      -82.1605   23.1208  -76.3325 H         1 UNK         0.2946 
    123 H123      -82.9481   26.1914  -75.3749 H         1 UNK         0.1144 
    124 H124      -84.0103   23.9559  -75.6221 H         1 UNK         0.0793 
    125 H125      -84.1616   24.5290  -73.9756 H         1 UNK         0.0793 
    126 H126      -82.9760   23.2898  -74.3573 H         1 UNK         0.0793 
    127 H127      -81.9583   26.6569  -73.4447 H         1 UNK         0.2896 
@<TRIPOS>BOND
     1    1    2 1    
     2    1   67 1    
     3    1   68 1    
     4    1   69 1    
     5    2    3 2    
     6    2    4 am   BACKBONE|DICT|INTERRES
     7    4    5 1    
     8    4   70 1    
     9    5    6 1    
    10    5   65 1    
    11    5   71 1    
    12    6    7 1    
    13    6   72 1    
    14    6   73 1    
    15    7    8 1    
    16    8    9 1    
    17    8   74 1    
    18    8   75 1    
    19    9   10 ar   
    20    9   14 ar   
    21   10   11 ar   
    22   10   76 1    
    23   11   12 ar   
    24   11   48 1    
    25   12   13 ar   
    26   12   77 1    
    27   13   14 ar   
    28   13   15 1    
    29   14   78 1    
    30   15   16 1    
    31   15   79 1    
    32   15   80 1    
    33   16   17 1    
    34   17   18 1    
    35   17   81 1    
    36   17   82 1    
    37   18   19 1    
    38   18   22 1    
    39   18   83 1    
    40   19   20 am   BACKBONE|DICT|INTERRES
    41   19   21 2    
    42   20   84 1    
    43   20   85 1    
    44   22   23 am   BACKBONE|DICT|INTERRES
    45   22   86 1    
    46   23   24 2    
    47   23   25 1    
    48   25   26 1    
    49   25   27 1    
    50   25   87 1    
    51   26   88 1    
    52   26   89 1    
    53   26   90 1    
    54   27   28 am   BACKBONE|DICT|INTERRES
    55   27   91 1    
    56   28   29 2    
    57   28   30 1    
    58   30   31 1    
    59   30   32 1    
    60   30   92 1    
    61   31   93 1    
    62   31   94 1    
    63   31   95 1    
    64   32   33 am   BACKBONE|DICT|INTERRES
    65   32   96 1    
    66   33   34 2    
    67   33   35 1    
    68   35   36 1    
    69   35   37 1    
    70   35   97 1    
    71   36   98 1    
    72   36   99 1    
    73   36  100 1    
    74   37   38 am   BACKBONE|DICT|INTERRES
    75   37  101 1    
    76   38   39 2    
    77   38   40 1    
    78   40   41 1    
    79   40   42 1    
    80   40  102 1    
    81   41  103 1    
    82   41  104 1    
    83   41  105 1    
    84   42   43 am   BACKBONE|DICT|INTERRES
    85   42  106 1    
    86   43   44 2    
    87   43   45 1    
    88   45   46 1    
    89   45   49 1    
    90   45  107 1    
    91   46   47 1    
    92   46  108 1    
    93   46  109 1    
    94   47   48 1    
    95   48  110 1    
    96   48  111 1    
    97   49   50 am   BACKBONE|DICT|INTERRES
    98   49  112 1    
    99   50   51 2    
   100   50   52 1    
   101   52   53 1    
   102   52   54 1    
   103   52  113 1    
   104   53  114 1    
   105   53  115 1    
   106   53  116 1    
   107   54   55 am   BACKBONE|DICT|INTERRES
   108   54  117 1    
   109   55   56 2    
   110   55   57 1    
   111   57   58 1    
   112   57   59 1    
   113   57  118 1    
   114   58  119 1    
   115   58  120 1    
   116   58  121 1    
   117   59   60 am   BACKBONE|DICT|INTERRES
   118   59  122 1    
   119   60   61 2    
   120   60   62 1    
   121   62   63 1    
   122   62   64 1    
   123   62  123 1    
   124   63  124 1    
   125   63  125 1    
   126   63  126 1    
   127   64   65 am   BACKBONE|DICT|INTERRES
   128   64  127 1    
   129   65   66 2    
@<TRIPOS>SUBSTRUCTURE
     1 UNK         1 GROUP             0       ****    0 ROOT    
