@<TRIPOS>MOLECULE
3R135
127   129    1
SMALL
USER_CHARGES


@<TRIPOS>ATOM
      1 CA        -79.4668   23.0117  -72.2433 C.3       0 UNK        -0.1998 
      2 C         -80.7345   23.5032  -71.5630 C.2       0 UNK         0.4909 
      3 O         -81.2010   22.8745  -70.6131 O.2       0 UNK        -0.5240 
      4 N         -81.3041   24.6099  -72.0525 N.am      1 UNK        -0.4739 
      5 CA        -82.5409   25.2252  -71.5520 C.3       1 UNK         0.0864 
      6 C6        -82.3462   26.7374  -71.2578 C.3       11 UNK        -0.0881 
      7 S7        -81.8252   27.7416  -72.6980 S.3       11 UNK        -0.2682 
      8 C8        -80.8436   29.0489  -71.8961 C.3       11 UNK         0.0289 
      9 C9        -79.3441   28.8535  -72.0823 C.ar      11 UNK        -0.0687 
     10 C10       -78.6982   27.7270  -71.5604 C.ar      11 UNK        -0.0823 
     11 C11       -77.3150   27.5770  -71.6966 C.ar      11 UNK        -0.0830 
     12 C12       -76.5813   28.5675  -72.3529 C.ar      11 UNK        -0.1021 
     13 C13       -77.2099   29.6894  -72.8999 C.ar      11 UNK        -0.0753 
     14 C14       -78.5948   29.8230  -72.7587 C.ar      11 UNK        -0.0933 
     15 C15       -76.4160   30.7500  -73.6618 C.3       11 UNK         0.0166 
     16 S16       -74.9087   31.3015  -72.7917 S.3       11 UNK        -0.2615 
     17 C17       -73.6531   30.1054  -73.3757 C.3       11 UNK        -0.0865 
     18 CA        -72.3912   30.7957  -73.9603 C.3       10 UNK         0.0862 
     19 C         -71.3837   31.1908  -72.8349 C.2       10 UNK         0.5551 
     20 N         -70.2434   30.5227  -72.6949 N.am      10 UNK        -0.7319 
     21 O         -71.6351   32.1282  -72.0822 O.2       10 UNK        -0.5018 
     22 N         -71.8075   29.9883  -75.0424 N.am      10 UNK        -0.4509 
     23 C         -70.8671   30.4216  -75.8937 C.2       10 UNK         0.4899 
     24 O         -70.5110   31.5985  -75.9713 O.2       10 UNK        -0.4839 
     25 CA        -70.2050   29.3646  -76.8029 C.3       9 UNK         0.0222 
     26 CB        -68.7453   29.7231  -77.1522 C.3       9 UNK        -0.1966 
     27 N         -70.2851   27.9911  -76.2842 N.am      9 UNK        -0.4218 
     28 C         -69.8185   27.5255  -75.1118 C.2       9 UNK         0.5020 
     29 O         -69.2287   28.2293  -74.2902 O.2       9 UNK        -0.5274 
     30 CA        -70.0930   26.0496  -74.7617 C.3       8 UNK         0.0270 
     31 CB        -70.7988   25.9346  -73.3977 C.3       8 UNK        -0.1976 
     32 N         -70.9183   25.3865  -75.7736 N.am      8 UNK        -0.4313 
     33 C         -70.4478   24.6463  -76.7878 C.2       8 UNK         0.5041 
     34 O         -69.2582   24.3638  -76.9339 O.2       8 UNK        -0.5577 
     35 CA        -71.4673   24.1562  -77.8361 C.3       7 UNK         0.0284 
     36 CB        -71.8941   22.7108  -77.5332 C.3       7 UNK        -0.1958 
     37 N         -72.6629   25.0000  -77.9387 N.am      7 UNK        -0.4454 
     38 C         -72.6707   26.2855  -78.3205 C.2       7 UNK         0.5089 
     39 O         -71.6672   26.8911  -78.6938 O.2       7 UNK        -0.5125 
     40 CA        -74.0024   27.0458  -78.1899 C.3       6 UNK         0.0408 
     41 CB        -74.7631   27.0358  -79.5241 C.3       6 UNK        -0.1791 
     42 N         -74.8754   26.5322  -77.1285 N.am      6 UNK        -0.4762 
     43 C         -74.5781   26.4769  -75.8228 C.2       6 UNK         0.5007 
     44 O         -73.5031   26.8680  -75.3605 O.2       6 UNK        -0.5032 
     45 CA        -75.6632   25.8832  -74.8966 C.3       5 UNK         0.0783 
     46 C46       -75.1419   25.6483  -73.4525 C.3       11 UNK        -0.0857 
     47 S47       -76.4261   25.0093  -72.3199 S.3       11 UNK        -0.2512 
     48 C48       -76.6046   26.3632  -71.1115 C.3       11 UNK         0.0225 
     49 N         -76.8911   26.6870  -74.9373 N.am      5 UNK        -0.4615 
     50 C         -77.8010   26.6572  -75.9175 C.2       4 UNK         0.5053 
     51 O         -77.6731   25.9916  -76.9489 O.2       4 UNK        -0.5105 
     52 CA        -79.0401   27.5474  -75.7345 C.3       4 UNK         0.0263 
     53 CB        -78.8198   28.9198  -76.3897 C.3       4 UNK        -0.1981 
     54 N         -80.2390   26.9284  -76.3032 N.am      4 UNK        -0.4224 
     55 C         -80.8221   25.8355  -75.7983 C.2       3 UNK         0.4895 
     56 O         -80.4397   25.2634  -74.7710 O.2       3 UNK        -0.5091 
     57 CA        -82.0352   25.2844  -76.5604 C.3       3 UNK         0.0250 
     58 CB        -81.6058   24.4716  -77.7941 C.3       3 UNK        -0.1996 
     59 N         -82.7514   24.4288  -75.6278 N.am      3 UNK        -0.4254 
     60 C         -84.0630   24.1803  -75.5774 C.2       2 UNK         0.5004 
     61 O         -84.8691   24.5255  -76.4415 O.2       2 UNK        -0.5226 
     62 CA        -84.5505   23.4453  -74.3136 C.3       2 UNK         0.0269 
     63 CB        -84.5669   21.9252  -74.5415 C.3       2 UNK        -0.1926 
     64 N         -83.7008   23.7565  -73.1561 N.am      2 UNK        -0.4687 
     65 C         -83.7257   24.9275  -72.5003 C.2       1 UNK         0.5165 
     66 O         -84.6230   25.7585  -72.6534 O.2       1 UNK        -0.5079 
     67 H67       -79.1364   23.6919  -73.0283 H         1 UNK         0.0900 
     68 H68       -79.6340   22.0324  -72.6906 H         1 UNK         0.0900 
     69 H69       -78.6614   22.9220  -71.5149 H         1 UNK         0.0900 
     70 H70       -80.9002   25.0574  -72.8728 H         1 UNK         0.2959 
     71 H71       -82.8208   24.7609  -70.6040 H         1 UNK         0.1079 
     72 H72       -83.2618   27.1700  -70.8502 H         1 UNK         0.0837 
     73 H73       -81.6032   26.8412  -70.4663 H         1 UNK         0.0837 
     74 H74       -81.0737   29.1045  -70.8315 H         1 UNK         0.0685 
     75 H75       -81.1565   30.0053  -72.3175 H         1 UNK         0.0685 
     76 H76       -79.2718   26.9701  -71.0438 H         1 UNK         0.1434 
     77 H77       -75.5126   28.4634  -72.4337 H         1 UNK         0.1329 
     78 H78       -79.0920   30.6899  -73.1721 H         1 UNK         0.1335 
     79 H79       -77.0378   31.6315  -73.8254 H         1 UNK         0.0680 
     80 H80       -76.1611   30.3753  -74.6534 H         1 UNK         0.0680 
     81 H81       -73.3877   29.4316  -72.5585 H         1 UNK         0.1032 
     82 H82       -74.1122   29.4699  -74.1345 H         1 UNK         0.1032 
     83 H83       -72.7062   31.7304  -74.4287 H         1 UNK         0.0461 
     84 H84       -70.0005   29.7556  -73.3142 H         1 UNK         0.3453 
     85 H85       -69.6027   30.7957  -71.9674 H         1 UNK         0.3453 
     86 H86       -72.0459   29.0064  -75.0521 H         1 UNK         0.2984 
     87 H87       -70.7770   29.3697  -77.7316 H         1 UNK         0.0554 
     88 H88       -68.2999   28.9762  -77.8092 H         1 UNK         0.0847 
     89 H89       -68.1233   29.7989  -76.2596 H         1 UNK         0.0847 
     90 H90       -68.6879   30.6811  -77.6703 H         1 UNK         0.0847 
     91 H91       -70.7492   27.3378  -76.9057 H         1 UNK         0.3141 
     92 H92       -69.1247   25.5511  -74.6843 H         1 UNK         0.0743 
     93 H93       -71.0012   24.8944  -73.1422 H         1 UNK         0.0784 
     94 H94       -70.1792   26.3463  -72.5998 H         1 UNK         0.0784 
     95 H95       -71.7464   26.4740  -73.3825 H         1 UNK         0.0784 
     96 H96       -71.9085   25.6049  -75.7407 H         1 UNK         0.3213 
     97 H97       -70.9669   24.1710  -78.8069 H         1 UNK         0.0855 
     98 H98       -72.4197   22.6348  -76.5804 H         1 UNK         0.0814 
     99 H99       -71.0263   22.0517  -77.4791 H         1 UNK         0.0814 
    100 H100      -72.5478   22.3171  -78.3118 H         1 UNK         0.0814 
    101 H101      -73.5402   24.5868  -77.6578 H         1 UNK         0.3105 
    102 H102      -73.7618   28.0816  -77.9414 H         1 UNK         0.0547 
    103 H103      -75.0588   26.0266  -79.8136 H         1 UNK         0.0837 
    104 H104      -75.6642   27.6471  -79.4717 H         1 UNK         0.0837 
    105 H105      -74.1464   27.4389  -80.3288 H         1 UNK         0.0837 
    106 H106      -75.8088   26.2336  -77.4015 H         1 UNK         0.3020 
    107 H107      -75.9043   24.8973  -75.3015 H         1 UNK         0.1245 
    108 H108      -74.6949   26.5495  -73.0363 H         1 UNK         0.0781 
    109 H109      -74.3338   24.9146  -73.4708 H         1 UNK         0.0781 
    110 H110      -75.6226   26.6449  -70.7281 H         1 UNK         0.0836 
    111 H111      -77.1636   25.9885  -70.2526 H         1 UNK         0.0836 
    112 H112      -77.0696   27.2558  -74.1201 H         1 UNK         0.3022 
    113 H113      -79.2111   27.6903  -74.6663 H         1 UNK         0.0747 
    114 H114      -79.6651   29.5843  -76.2098 H         1 UNK         0.0793 
    115 H115      -77.9342   29.4091  -75.9846 H         1 UNK         0.0793 
    116 H116      -78.6789   28.8349  -77.4680 H         1 UNK         0.0793 
    117 H117      -80.5867   27.3186  -77.1667 H         1 UNK         0.3047 
    118 H118      -82.6758   26.1172  -76.8589 H         1 UNK         0.0822 
    119 H119      -81.0653   25.0953  -78.5070 H         1 UNK         0.0807 
    120 H120      -82.4688   24.0567  -78.3152 H         1 UNK         0.0807 
    121 H121      -80.9498   23.6440  -77.5209 H         1 UNK         0.0807 
    122 H122      -82.1769   24.1441  -74.8446 H         1 UNK         0.2946 
    123 H123      -85.5709   23.7771  -74.1071 H         1 UNK         0.1144 
    124 H124      -85.2066   21.6659  -75.3864 H         1 UNK         0.0793 
    125 H125      -84.9545   21.3980  -73.6695 H         1 UNK         0.0793 
    126 H126      -83.5708   21.5356  -74.7552 H         1 UNK         0.0793 
    127 H127      -82.9562   23.1084  -72.9420 H         1 UNK         0.2896 
@<TRIPOS>BOND
     1    1    2 1    
     2    1   67 1    
     3    1   68 1    
     4    1   69 1    
     5    2    3 2    
     6    2    4 am   BACKBONE|DICT|INTERRES
     7    4    5 1    
     8    4   70 1    
     9    5    6 1    
    10    5   65 1    
    11    5   71 1    
    12    6    7 1    
    13    6   72 1    
    14    6   73 1    
    15    7    8 1    
    16    8    9 1    
    17    8   74 1    
    18    8   75 1    
    19    9   10 ar   
    20    9   14 ar   
    21   10   11 ar   
    22   10   76 1    
    23   11   12 ar   
    24   11   48 1    
    25   12   13 ar   
    26   12   77 1    
    27   13   14 ar   
    28   13   15 1    
    29   14   78 1    
    30   15   16 1    
    31   15   79 1    
    32   15   80 1    
    33   16   17 1    
    34   17   18 1    
    35   17   81 1    
    36   17   82 1    
    37   18   19 1    
    38   18   22 1    
    39   18   83 1    
    40   19   20 am   BACKBONE|DICT|INTERRES
    41   19   21 2    
    42   20   84 1    
    43   20   85 1    
    44   22   23 am   BACKBONE|DICT|INTERRES
    45   22   86 1    
    46   23   24 2    
    47   23   25 1    
    48   25   26 1    
    49   25   27 1    
    50   25   87 1    
    51   26   88 1    
    52   26   89 1    
    53   26   90 1    
    54   27   28 am   BACKBONE|DICT|INTERRES
    55   27   91 1    
    56   28   29 2    
    57   28   30 1    
    58   30   31 1    
    59   30   32 1    
    60   30   92 1    
    61   31   93 1    
    62   31   94 1    
    63   31   95 1    
    64   32   33 am   BACKBONE|DICT|INTERRES
    65   32   96 1    
    66   33   34 2    
    67   33   35 1    
    68   35   36 1    
    69   35   37 1    
    70   35   97 1    
    71   36   98 1    
    72   36   99 1    
    73   36  100 1    
    74   37   38 am   BACKBONE|DICT|INTERRES
    75   37  101 1    
    76   38   39 2    
    77   38   40 1    
    78   40   41 1    
    79   40   42 1    
    80   40  102 1    
    81   41  103 1    
    82   41  104 1    
    83   41  105 1    
    84   42   43 am   BACKBONE|DICT|INTERRES
    85   42  106 1    
    86   43   44 2    
    87   43   45 1    
    88   45   46 1    
    89   45   49 1    
    90   45  107 1    
    91   46   47 1    
    92   46  108 1    
    93   46  109 1    
    94   47   48 1    
    95   48  110 1    
    96   48  111 1    
    97   49   50 am   BACKBONE|DICT|INTERRES
    98   49  112 1    
    99   50   51 2    
   100   50   52 1    
   101   52   53 1    
   102   52   54 1    
   103   52  113 1    
   104   53  114 1    
   105   53  115 1    
   106   53  116 1    
   107   54   55 am   BACKBONE|DICT|INTERRES
   108   54  117 1    
   109   55   56 2    
   110   55   57 1    
   111   57   58 1    
   112   57   59 1    
   113   57  118 1    
   114   58  119 1    
   115   58  120 1    
   116   58  121 1    
   117   59   60 am   BACKBONE|DICT|INTERRES
   118   59  122 1    
   119   60   61 2    
   120   60   62 1    
   121   62   63 1    
   122   62   64 1    
   123   62  123 1    
   124   63  124 1    
   125   63  125 1    
   126   63  126 1    
   127   64   65 am   BACKBONE|DICT|INTERRES
   128   64  127 1    
   129   65   66 2    
@<TRIPOS>SUBSTRUCTURE
     1 UNK         1 GROUP             0       ****    0 ROOT    
