@<TRIPOS>MOLECULE
3R135
127   129    1
SMALL
USER_CHARGES


@<TRIPOS>ATOM
      1 CA        -80.1811   25.4821  -69.3250 C.3       0 UNK        -0.1998 
      2 C         -81.0162   26.0028  -70.4850 C.2       0 UNK         0.4909 
      3 O         -82.2447   26.0098  -70.4026 O.2       0 UNK        -0.5240 
      4 N         -80.3579   26.4334  -71.5642 N.am      1 UNK        -0.4739 
      5 CA        -80.9614   26.8987  -72.8106 C.3       1 UNK         0.0864 
      6 C6        -81.6511   28.2989  -72.6968 C.3       11 UNK        -0.0881 
      7 S7        -80.7073   29.8311  -73.0368 S.3       11 UNK        -0.2682 
      8 C8        -79.5035   29.9151  -71.6725 C.3       11 UNK         0.0289 
      9 C9        -78.1921   29.2225  -72.0212 C.ar      11 UNK        -0.0687 
     10 C10       -77.7011   28.1967  -71.2085 C.ar      11 UNK        -0.0823 
     11 C11       -76.5154   27.5387  -71.5412 C.ar      11 UNK        -0.0830 
     12 C12       -75.7912   27.9536  -72.6593 C.ar      11 UNK        -0.1021 
     13 C13       -76.2700   28.9642  -73.4927 C.ar      11 UNK        -0.0753 
     14 C14       -77.4719   29.6024  -73.1612 C.ar      11 UNK        -0.0933 
     15 C15       -75.4752   29.2606  -74.7618 C.3       11 UNK         0.0166 
     16 S16       -75.9129   30.7803  -75.6708 S.3       11 UNK        -0.2615 
     17 C17       -75.3511   32.1588  -74.5995 C.3       11 UNK        -0.0865 
     18 CA        -73.9411   32.0495  -73.9438 C.3       10 UNK         0.0862 
     19 C         -73.9839   31.4724  -72.4948 C.2       10 UNK         0.5551 
     20 N         -73.2398   30.4268  -72.1554 N.am      10 UNK        -0.7319 
     21 O         -74.6936   32.0101  -71.6484 O.2       10 UNK        -0.5018 
     22 N         -72.9505   31.4503  -74.8521 N.am      10 UNK        -0.4509 
     23 C         -71.6234   31.5762  -74.7485 C.2       10 UNK         0.4899 
     24 O         -71.0682   32.3221  -73.9399 O.2       10 UNK        -0.4839 
     25 CA        -70.7852   30.7025  -75.7055 C.3       9 UNK         0.0222 
     26 CB        -69.2877   30.6903  -75.3330 C.3       9 UNK        -0.1966 
     27 N         -71.2770   29.3217  -75.8428 N.am      9 UNK        -0.4218 
     28 C         -71.5139   28.4299  -74.8697 C.2       9 UNK         0.5020 
     29 O         -71.4671   28.7025  -73.6692 O.2       9 UNK        -0.5274 
     30 CA        -71.8617   26.9923  -75.3155 C.3       8 UNK         0.0270 
     31 CB        -71.9957   26.0248  -74.1240 C.3       8 UNK        -0.1976 
     32 N         -73.0740   26.8944  -76.1352 N.am      8 UNK        -0.4313 
     33 C         -73.2075   27.3127  -77.4007 C.2       8 UNK         0.5041 
     34 O         -72.3206   27.9136  -78.0124 O.2       8 UNK        -0.5577 
     35 CA        -74.5535   27.0084  -78.0898 C.3       7 UNK         0.0284 
     36 CB        -74.4906   27.1905  -79.6208 C.3       7 UNK        -0.1958 
     37 N         -75.1108   25.6891  -77.7577 N.am      7 UNK        -0.4454 
     38 C         -74.5457   24.4863  -77.9418 C.2       7 UNK         0.5089 
     39 O         -73.3990   24.3137  -78.3585 O.2       7 UNK        -0.5125 
     40 CA        -75.4437   23.2775  -77.6128 C.3       6 UNK         0.0408 
     41 CB        -74.7499   21.9184  -77.8465 C.3       6 UNK        -0.1791 
     42 N         -76.0253   23.3525  -76.2671 N.am      6 UNK        -0.4762 
     43 C         -75.3833   23.3098  -75.0888 C.2       6 UNK         0.5007 
     44 O         -74.1617   23.2048  -74.9825 O.2       6 UNK        -0.5032 
     45 CA        -76.2361   23.4037  -73.8026 C.3       5 UNK         0.0783 
     46 C46       -75.9242   24.7099  -73.0394 C.3       11 UNK        -0.0857 
     47 S47       -76.7195   24.7870  -71.3954 S.3       11 UNK        -0.2512 
     48 C48       -76.0367   26.3436  -70.7324 C.3       11 UNK         0.0225 
     49 N         -77.6720   23.2813  -74.0732 N.am      5 UNK        -0.4615 
     50 C         -78.3200   22.1252  -74.2549 C.2       4 UNK         0.5053 
     51 O         -77.7807   21.0195  -74.2128 O.2       4 UNK        -0.5105 
     52 CA        -79.8225   22.2286  -74.5521 C.3       4 UNK         0.0263 
     53 CB        -80.6148   22.5222  -73.2663 C.3       4 UNK        -0.1981 
     54 N         -80.1083   23.2575  -75.5547 N.am      4 UNK        -0.4224 
     55 C         -79.9029   23.1152  -76.8723 C.2       3 UNK         0.4895 
     56 O         -79.4566   22.0911  -77.3889 O.2       3 UNK        -0.5091 
     57 CA        -80.2573   24.3131  -77.7720 C.3       3 UNK         0.0250 
     58 CB        -81.7031   24.1935  -78.2802 C.3       3 UNK        -0.1996 
     59 N         -80.0838   25.6049  -77.1034 N.am      3 UNK        -0.4254 
     60 C         -78.8932   26.1624  -76.8465 C.2       2 UNK         0.5004 
     61 O         -77.8178   25.6684  -77.1805 O.2       2 UNK        -0.5226 
     62 CA        -78.8972   27.4656  -76.0346 C.3       2 UNK         0.0269 
     63 CB        -79.0513   28.6885  -76.9502 C.3       2 UNK        -0.1926 
     64 N         -79.9157   27.4988  -74.9801 N.am      2 UNK        -0.4687 
     65 C         -79.9280   26.6670  -73.9312 C.2       1 UNK         0.5165 
     66 O         -79.1582   25.7072  -73.8360 O.2       1 UNK        -0.5079 
     67 H67       -80.4509   24.4500  -69.1028 H         1 UNK         0.0900 
     68 H68       -79.1141   25.5118  -69.5443 H         1 UNK         0.0900 
     69 H69       -80.3614   26.0821  -68.4334 H         1 UNK         0.0900 
     70 H70       -79.3523   26.3257  -71.6243 H         1 UNK         0.2959 
     71 H71       -81.7548   26.1832  -73.0387 H         1 UNK         0.1079 
     72 H72       -82.1209   28.4091  -71.7186 H         1 UNK         0.0837 
     73 H73       -82.4878   28.3143  -73.3971 H         1 UNK         0.0837 
     74 H74       -79.9482   29.4975  -70.7678 H         1 UNK         0.0685 
     75 H75       -79.2927   30.9634  -71.4578 H         1 UNK         0.0685 
     76 H76       -78.2548   27.8921  -70.3314 H         1 UNK         0.1434 
     77 H77       -74.8694   27.4490  -72.9116 H         1 UNK         0.1329 
     78 H78       -77.8718   30.3794  -73.7962 H         1 UNK         0.1335 
     79 H79       -75.6337   28.4239  -75.4410 H         1 UNK         0.0680 
     80 H80       -74.4106   29.2570  -74.5364 H         1 UNK         0.0680 
     81 H81       -76.1234   32.3500  -73.8520 H         1 UNK         0.1032 
     82 H82       -75.3608   33.0478  -75.2317 H         1 UNK         0.1032 
     83 H83       -73.6105   33.0789  -73.7906 H         1 UNK         0.0461 
     84 H84       -73.2887   30.0859  -71.2097 H         1 UNK         0.3453 
     85 H85       -72.6200   29.9707  -72.8179 H         1 UNK         0.3453 
     86 H86       -73.3247   30.8280  -75.5526 H         1 UNK         0.2984 
     87 H87       -70.8768   31.1590  -76.6921 H         1 UNK         0.0554 
     88 H88       -68.8735   31.6994  -75.3331 H         1 UNK         0.0847 
     89 H89       -68.7059   30.1044  -76.0445 H         1 UNK         0.0847 
     90 H90       -69.1240   30.2705  -74.3397 H         1 UNK         0.0847 
     91 H91       -71.4342   28.9907  -76.7948 H         1 UNK         0.3141 
     92 H92       -71.0228   26.6445  -75.9221 H         1 UNK         0.0743 
     93 H93       -71.0907   26.0268  -73.5149 H         1 UNK         0.0784 
     94 H94       -72.1513   24.9996  -74.4601 H         1 UNK         0.0784 
     95 H95       -72.8261   26.2960  -73.4721 H         1 UNK         0.0784 
     96 H96       -73.8464   26.3876  -75.7295 H         1 UNK         0.3213 
     97 H97       -75.2629   27.7435  -77.7079 H         1 UNK         0.0855 
     98 H98       -73.7655   26.5160  -80.0776 H         1 UNK         0.0814 
     99 H99       -74.1988   28.2082  -79.8835 H         1 UNK         0.0814 
    100 H100      -75.4602   27.0045  -80.0825 H         1 UNK         0.0814 
    101 H101      -76.0838   25.6902  -77.4451 H         1 UNK         0.3105 
    102 H102      -76.2864   23.3309  -78.3041 H         1 UNK         0.0547 
    103 H103      -75.4232   21.0881  -77.6341 H         1 UNK         0.0837 
    104 H104      -73.8626   21.7996  -77.2242 H         1 UNK         0.0837 
    105 H105      -74.4308   21.8192  -78.8846 H         1 UNK         0.0837 
    106 H106      -77.0259   23.4960  -76.2387 H         1 UNK         0.3020 
    107 H107      -75.9304   22.5654  -73.1722 H         1 UNK         0.1245 
    108 H108      -76.2640   25.5567  -73.6364 H         1 UNK         0.0781 
    109 H109      -74.8487   24.8304  -72.8957 H         1 UNK         0.0781 
    110 H110      -74.9465   26.2950  -70.7294 H         1 UNK         0.0836 
    111 H111      -76.3404   26.4506  -69.6900 H         1 UNK         0.0836 
    112 H112      -78.2029   24.1506  -74.0625 H         1 UNK         0.3022 
    113 H113      -80.1554   21.2637  -74.9411 H         1 UNK         0.0747 
    114 H114      -81.6873   22.5511  -73.4588 H         1 UNK         0.0793 
    115 H115      -80.4416   21.7467  -72.5189 H         1 UNK         0.0793 
    116 H116      -80.3289   23.4736  -72.8162 H         1 UNK         0.0793 
    117 H117      -80.4229   24.1522  -75.2101 H         1 UNK         0.3047 
    118 H118      -79.5898   24.2823  -78.6364 H         1 UNK         0.0822 
    119 H119      -81.9452   24.9939  -78.9797 H         1 UNK         0.0807 
    120 H120      -82.4251   24.2303  -77.4634 H         1 UNK         0.0807 
    121 H121      -81.8544   23.2497  -78.8063 H         1 UNK         0.0807 
    122 H122      -80.9168   26.0859  -76.7959 H         1 UNK         0.2946 
    123 H123      -77.9247   27.5327  -75.5429 H         1 UNK         0.1144 
    124 H124      -78.9456   29.6169  -76.3880 H         1 UNK         0.0793 
    125 H125      -80.0217   28.7037  -77.4476 H         1 UNK         0.0793 
    126 H126      -78.2839   28.6943  -77.7257 H         1 UNK         0.0793 
    127 H127      -80.5430   28.2918  -74.9691 H         1 UNK         0.2896 
@<TRIPOS>BOND
     1    1    2 1    
     2    1   67 1    
     3    1   68 1    
     4    1   69 1    
     5    2    3 2    
     6    2    4 am   BACKBONE|DICT|INTERRES
     7    4    5 1    
     8    4   70 1    
     9    5    6 1    
    10    5   65 1    
    11    5   71 1    
    12    6    7 1    
    13    6   72 1    
    14    6   73 1    
    15    7    8 1    
    16    8    9 1    
    17    8   74 1    
    18    8   75 1    
    19    9   10 ar   
    20    9   14 ar   
    21   10   11 ar   
    22   10   76 1    
    23   11   12 ar   
    24   11   48 1    
    25   12   13 ar   
    26   12   77 1    
    27   13   14 ar   
    28   13   15 1    
    29   14   78 1    
    30   15   16 1    
    31   15   79 1    
    32   15   80 1    
    33   16   17 1    
    34   17   18 1    
    35   17   81 1    
    36   17   82 1    
    37   18   19 1    
    38   18   22 1    
    39   18   83 1    
    40   19   20 am   BACKBONE|DICT|INTERRES
    41   19   21 2    
    42   20   84 1    
    43   20   85 1    
    44   22   23 am   BACKBONE|DICT|INTERRES
    45   22   86 1    
    46   23   24 2    
    47   23   25 1    
    48   25   26 1    
    49   25   27 1    
    50   25   87 1    
    51   26   88 1    
    52   26   89 1    
    53   26   90 1    
    54   27   28 am   BACKBONE|DICT|INTERRES
    55   27   91 1    
    56   28   29 2    
    57   28   30 1    
    58   30   31 1    
    59   30   32 1    
    60   30   92 1    
    61   31   93 1    
    62   31   94 1    
    63   31   95 1    
    64   32   33 am   BACKBONE|DICT|INTERRES
    65   32   96 1    
    66   33   34 2    
    67   33   35 1    
    68   35   36 1    
    69   35   37 1    
    70   35   97 1    
    71   36   98 1    
    72   36   99 1    
    73   36  100 1    
    74   37   38 am   BACKBONE|DICT|INTERRES
    75   37  101 1    
    76   38   39 2    
    77   38   40 1    
    78   40   41 1    
    79   40   42 1    
    80   40  102 1    
    81   41  103 1    
    82   41  104 1    
    83   41  105 1    
    84   42   43 am   BACKBONE|DICT|INTERRES
    85   42  106 1    
    86   43   44 2    
    87   43   45 1    
    88   45   46 1    
    89   45   49 1    
    90   45  107 1    
    91   46   47 1    
    92   46  108 1    
    93   46  109 1    
    94   47   48 1    
    95   48  110 1    
    96   48  111 1    
    97   49   50 am   BACKBONE|DICT|INTERRES
    98   49  112 1    
    99   50   51 2    
   100   50   52 1    
   101   52   53 1    
   102   52   54 1    
   103   52  113 1    
   104   53  114 1    
   105   53  115 1    
   106   53  116 1    
   107   54   55 am   BACKBONE|DICT|INTERRES
   108   54  117 1    
   109   55   56 2    
   110   55   57 1    
   111   57   58 1    
   112   57   59 1    
   113   57  118 1    
   114   58  119 1    
   115   58  120 1    
   116   58  121 1    
   117   59   60 am   BACKBONE|DICT|INTERRES
   118   59  122 1    
   119   60   61 2    
   120   60   62 1    
   121   62   63 1    
   122   62   64 1    
   123   62  123 1    
   124   63  124 1    
   125   63  125 1    
   126   63  126 1    
   127   64   65 am   BACKBONE|DICT|INTERRES
   128   64  127 1    
   129   65   66 2    
@<TRIPOS>SUBSTRUCTURE
     1 UNK         1 GROUP             0       ****    0 ROOT    
