@<TRIPOS>MOLECULE
3R135
127   129    1
SMALL
USER_CHARGES


@<TRIPOS>ATOM
      1 CA        -84.6317   27.4115  -74.5942 C.3       0 UNK        -0.1998 
      2 C         -83.2658   27.3264  -73.9308 C.2       0 UNK         0.4909 
      3 O         -82.3536   26.7116  -74.4841 O.2       0 UNK        -0.5240 
      4 N         -83.1139   27.9393  -72.7494 N.am      1 UNK        -0.4739 
      5 CA        -81.8762   27.9387  -71.9618 C.3       1 UNK         0.0864 
      6 C6        -81.9536   28.8965  -70.7483 C.3       11 UNK        -0.0881 
      7 S7        -82.0780   30.6369  -71.2833 S.3       11 UNK        -0.2682 
      8 C8        -80.3690   31.2298  -71.0435 C.3       11 UNK         0.0289 
      9 C9        -79.3447   30.3827  -71.7891 C.ar      11 UNK        -0.0687 
     10 C10       -79.3384   30.3497  -73.1883 C.ar      11 UNK        -0.0823 
     11 C11       -78.4150   29.5533  -73.8725 C.ar      11 UNK        -0.0830 
     12 C12       -77.4826   28.8049  -73.1510 C.ar      11 UNK        -0.1021 
     13 C13       -77.4719   28.8389  -71.7558 C.ar      11 UNK        -0.0753 
     14 C14       -78.4060   29.6266  -71.0776 C.ar      11 UNK        -0.0933 
     15 C15       -76.4535   28.0082  -70.9968 C.3       11 UNK         0.0166 
     16 S16       -74.8400   28.8409  -70.9202 S.3       11 UNK        -0.2615 
     17 C17       -73.7456   27.3939  -70.6969 C.3       11 UNK        -0.0865 
     18 CA        -72.9187   27.0113  -71.9534 C.3       10 UNK         0.0862 
     19 C         -73.7924   26.5246  -73.1480 C.2       10 UNK         0.5551 
     20 N         -74.2074   25.2663  -73.1451 N.am      10 UNK        -0.7319 
     21 O         -74.1016   27.2740  -74.0727 O.2       10 UNK        -0.5018 
     22 N         -72.0093   28.0939  -72.3494 N.am      10 UNK        -0.4509 
     23 C         -70.9110   27.9038  -73.0863 C.2       10 UNK         0.4899 
     24 O         -70.4430   26.7955  -73.3547 O.2       10 UNK        -0.4839 
     25 CA        -70.2517   29.1582  -73.6693 C.3       9 UNK         0.0222 
     26 CB        -68.7282   29.1542  -73.4563 C.3       9 UNK        -0.1966 
     27 N         -70.5413   29.1555  -75.0979 N.am      9 UNK        -0.4218 
     28 C         -71.6035   29.7304  -75.6703 C.2       9 UNK         0.5020 
     29 O         -72.3510   30.5200  -75.0917 O.2       9 UNK        -0.5274 
     30 CA        -71.9010   29.3397  -77.1289 C.3       8 UNK         0.0270 
     31 CB        -70.8934   29.9730  -78.1088 C.3       8 UNK        -0.1976 
     32 N         -72.0334   27.8892  -77.3361 N.am      8 UNK        -0.4313 
     33 C         -71.0992   26.9296  -77.2254 C.2       8 UNK         0.5041 
     34 O         -69.9194   27.1562  -76.9501 O.2       8 UNK        -0.5577 
     35 CA        -71.5393   25.4662  -77.4323 C.3       7 UNK         0.0284 
     36 CB        -71.6420   24.7440  -76.0796 C.3       7 UNK        -0.1958 
     37 N         -72.8150   25.3300  -78.1368 N.am      7 UNK        -0.4454 
     38 C         -73.0021   25.5909  -79.4386 C.2       7 UNK         0.5089 
     39 O         -72.0896   25.8713  -80.2161 O.2       7 UNK        -0.5125 
     40 CA        -74.4524   25.5632  -79.9622 C.3       6 UNK         0.0408 
     41 CB        -74.7177   24.2599  -80.7324 C.3       6 UNK        -0.1791 
     42 N         -75.4780   25.7227  -78.9237 N.am      6 UNK        -0.4762 
     43 C         -75.6108   26.7760  -78.1016 C.2       6 UNK         0.5007 
     44 O         -74.8740   27.7618  -78.1410 O.2       6 UNK        -0.5032 
     45 CA        -76.7184   26.7088  -77.0312 C.3       5 UNK         0.0783 
     46 C46       -77.9035   27.6288  -77.4135 C.3       11 UNK        -0.0857 
     47 S47       -79.0201   27.8989  -75.9979 S.3       11 UNK        -0.2512 
     48 C48       -78.4008   29.5011  -75.3900 C.3       11 UNK         0.0225 
     49 N         -77.1674   25.3372  -76.7614 N.am      5 UNK        -0.4615 
     50 C         -76.4514   24.3823  -76.1568 C.2       4 UNK         0.5053 
     51 O         -75.2961   24.5530  -75.7656 O.2       4 UNK        -0.5105 
     52 CA        -77.1395   23.0134  -75.9687 C.3       4 UNK         0.0263 
     53 CB        -76.3024   22.0512  -75.1054 C.3       4 UNK        -0.1981 
     54 N         -78.4754   23.1305  -75.3781 N.am      4 UNK        -0.4224 
     55 C         -79.5909   23.5430  -75.9925 C.2       3 UNK         0.4895 
     56 O         -79.6305   23.8463  -77.1856 O.2       3 UNK        -0.5091 
     57 CA        -80.8601   23.6971  -75.1352 C.3       3 UNK         0.0250 
     58 CB        -81.6243   22.3646  -75.0121 C.3       3 UNK        -0.1996 
     59 N         -80.6251   24.3252  -73.8250 N.am      3 UNK        -0.4254 
     60 C         -79.9566   23.8408  -72.7646 C.2       2 UNK         0.5004 
     61 O         -79.4580   22.7149  -72.7386 O.2       2 UNK        -0.5226 
     62 CA        -79.7356   24.7702  -71.5549 C.3       2 UNK         0.0269 
     63 CB        -78.2376   24.8587  -71.2167 C.3       2 UNK        -0.1926 
     64 N         -80.2463   26.1259  -71.7739 N.am      2 UNK        -0.4687 
     65 C         -81.5025   26.5114  -71.5205 C.2       1 UNK         0.5165 
     66 O         -82.3497   25.7923  -70.9856 O.2       1 UNK        -0.5079 
     67 H67       -85.0425   26.4120  -74.7342 H         1 UNK         0.0900 
     68 H68       -84.5438   27.8844  -75.5719 H         1 UNK         0.0900 
     69 H69       -85.3386   27.9895  -73.9994 H         1 UNK         0.0900 
     70 H70       -83.8949   28.4265  -72.3342 H         1 UNK         0.2959 
     71 H71       -81.0870   28.2907  -72.6281 H         1 UNK         0.1079 
     72 H72       -82.8184   28.6588  -70.1260 H         1 UNK         0.0837 
     73 H73       -81.0810   28.7849  -70.1017 H         1 UNK         0.0837 
     74 H74       -80.3010   32.2616  -71.3910 H         1 UNK         0.0685 
     75 H75       -80.1504   31.2524  -69.9746 H         1 UNK         0.0685 
     76 H76       -80.0645   30.9319  -73.7396 H         1 UNK         0.1434 
     77 H77       -76.7597   28.1951  -73.6773 H         1 UNK         0.1329 
     78 H78       -78.4010   29.6497  -69.9963 H         1 UNK         0.1335 
     79 H79       -76.8008   27.7914  -69.9855 H         1 UNK         0.0680 
     80 H80       -76.3385   27.0490  -71.5007 H         1 UNK         0.0680 
     81 H81       -74.3240   26.5353  -70.3509 H         1 UNK         0.1032 
     82 H82       -73.0635   27.6211  -69.8763 H         1 UNK         0.1032 
     83 H83       -72.2954   26.1637  -71.6597 H         1 UNK         0.0461 
     84 H84       -73.9593   24.6247  -72.4096 H         1 UNK         0.3453 
     85 H85       -74.7187   24.9407  -73.9590 H         1 UNK         0.3453 
     86 H86       -72.3695   29.0304  -72.2328 H         1 UNK         0.2984 
     87 H87       -70.6647   30.0507  -73.1942 H         1 UNK         0.0554 
     88 H88       -68.4845   29.1259  -72.3936 H         1 UNK         0.0847 
     89 H89       -68.2695   30.0518  -73.8713 H         1 UNK         0.0847 
     90 H90       -68.2526   28.2908  -73.9239 H         1 UNK         0.0847 
     91 H91       -70.0552   28.4547  -75.6570 H         1 UNK         0.3141 
     92 H92       -72.8831   29.7523  -77.3664 H         1 UNK         0.0743 
     93 H93       -70.8826   31.0587  -78.0045 H         1 UNK         0.0784 
     94 H94       -69.8751   29.6228  -77.9385 H         1 UNK         0.0784 
     95 H95       -71.1552   29.7490  -79.1429 H         1 UNK         0.0784 
     96 H96       -72.9812   27.5960  -77.5565 H         1 UNK         0.3213 
     97 H97       -70.7654   24.9749  -78.0261 H         1 UNK         0.0855 
     98 H98       -70.7037   24.8103  -75.5267 H         1 UNK         0.0814 
     99 H99       -71.8701   23.6858  -76.2075 H         1 UNK         0.0814 
    100 H100      -72.4188   25.1807  -75.4518 H         1 UNK         0.0814 
    101 H101      -73.6228   25.0996  -77.5725 H         1 UNK         0.3105 
    102 H102      -74.5592   26.3989  -80.6567 H         1 UNK         0.0547 
    103 H103      -73.9902   24.1248  -81.5341 H         1 UNK         0.0837 
    104 H104      -74.6514   23.3861  -80.0829 H         1 UNK         0.0837 
    105 H105      -75.7054   24.2634  -81.1937 H         1 UNK         0.0837 
    106 H106      -76.1315   24.9606  -78.8142 H         1 UNK         0.3020 
    107 H107      -76.2648   27.0915  -76.1129 H         1 UNK         0.1245 
    108 H108      -78.4799   27.1912  -78.2308 H         1 UNK         0.0781 
    109 H109      -77.5572   28.5970  -77.7814 H         1 UNK         0.0781 
    110 H110      -79.0024   30.3042  -75.8183 H         1 UNK         0.0836 
    111 H111      -77.3771   29.6692  -75.7282 H         1 UNK         0.0836 
    112 H112      -78.1134   25.1041  -77.0469 H         1 UNK         0.3022 
    113 H113      -77.2402   22.5695  -76.9611 H         1 UNK         0.0747 
    114 H114      -75.3150   21.8898  -75.5405 H         1 UNK         0.0793 
    115 H115      -76.1563   22.4400  -74.0967 H         1 UNK         0.0793 
    116 H116      -76.7803   21.0750  -75.0222 H         1 UNK         0.0793 
    117 H117      -78.5608   22.9050  -74.3900 H         1 UNK         0.3047 
    118 H118      -81.5084   24.3912  -75.6726 H         1 UNK         0.0822 
    119 H119      -81.8937   21.9816  -75.9973 H         1 UNK         0.0807 
    120 H120      -82.5494   22.4900  -74.4494 H         1 UNK         0.0807 
    121 H121      -81.0326   21.5933  -74.5187 H         1 UNK         0.0807 
    122 H122      -80.9885   25.2705  -73.7599 H         1 UNK         0.2946 
    123 H123      -80.2512   24.3181  -70.7042 H         1 UNK         0.1144 
    124 H124      -78.0599   25.5210  -70.3697 H         1 UNK         0.0793 
    125 H125      -77.6569   25.2207  -72.0660 H         1 UNK         0.0793 
    126 H126      -77.8376   23.8806  -70.9459 H         1 UNK         0.0793 
    127 H127      -79.6139   26.7770  -72.2196 H         1 UNK         0.2896 
@<TRIPOS>BOND
     1    1    2 1    
     2    1   67 1    
     3    1   68 1    
     4    1   69 1    
     5    2    3 2    
     6    2    4 am   BACKBONE|DICT|INTERRES
     7    4    5 1    
     8    4   70 1    
     9    5    6 1    
    10    5   65 1    
    11    5   71 1    
    12    6    7 1    
    13    6   72 1    
    14    6   73 1    
    15    7    8 1    
    16    8    9 1    
    17    8   74 1    
    18    8   75 1    
    19    9   10 ar   
    20    9   14 ar   
    21   10   11 ar   
    22   10   76 1    
    23   11   12 ar   
    24   11   48 1    
    25   12   13 ar   
    26   12   77 1    
    27   13   14 ar   
    28   13   15 1    
    29   14   78 1    
    30   15   16 1    
    31   15   79 1    
    32   15   80 1    
    33   16   17 1    
    34   17   18 1    
    35   17   81 1    
    36   17   82 1    
    37   18   19 1    
    38   18   22 1    
    39   18   83 1    
    40   19   20 am   BACKBONE|DICT|INTERRES
    41   19   21 2    
    42   20   84 1    
    43   20   85 1    
    44   22   23 am   BACKBONE|DICT|INTERRES
    45   22   86 1    
    46   23   24 2    
    47   23   25 1    
    48   25   26 1    
    49   25   27 1    
    50   25   87 1    
    51   26   88 1    
    52   26   89 1    
    53   26   90 1    
    54   27   28 am   BACKBONE|DICT|INTERRES
    55   27   91 1    
    56   28   29 2    
    57   28   30 1    
    58   30   31 1    
    59   30   32 1    
    60   30   92 1    
    61   31   93 1    
    62   31   94 1    
    63   31   95 1    
    64   32   33 am   BACKBONE|DICT|INTERRES
    65   32   96 1    
    66   33   34 2    
    67   33   35 1    
    68   35   36 1    
    69   35   37 1    
    70   35   97 1    
    71   36   98 1    
    72   36   99 1    
    73   36  100 1    
    74   37   38 am   BACKBONE|DICT|INTERRES
    75   37  101 1    
    76   38   39 2    
    77   38   40 1    
    78   40   41 1    
    79   40   42 1    
    80   40  102 1    
    81   41  103 1    
    82   41  104 1    
    83   41  105 1    
    84   42   43 am   BACKBONE|DICT|INTERRES
    85   42  106 1    
    86   43   44 2    
    87   43   45 1    
    88   45   46 1    
    89   45   49 1    
    90   45  107 1    
    91   46   47 1    
    92   46  108 1    
    93   46  109 1    
    94   47   48 1    
    95   48  110 1    
    96   48  111 1    
    97   49   50 am   BACKBONE|DICT|INTERRES
    98   49  112 1    
    99   50   51 2    
   100   50   52 1    
   101   52   53 1    
   102   52   54 1    
   103   52  113 1    
   104   53  114 1    
   105   53  115 1    
   106   53  116 1    
   107   54   55 am   BACKBONE|DICT|INTERRES
   108   54  117 1    
   109   55   56 2    
   110   55   57 1    
   111   57   58 1    
   112   57   59 1    
   113   57  118 1    
   114   58  119 1    
   115   58  120 1    
   116   58  121 1    
   117   59   60 am   BACKBONE|DICT|INTERRES
   118   59  122 1    
   119   60   61 2    
   120   60   62 1    
   121   62   63 1    
   122   62   64 1    
   123   62  123 1    
   124   63  124 1    
   125   63  125 1    
   126   63  126 1    
   127   64   65 am   BACKBONE|DICT|INTERRES
   128   64  127 1    
   129   65   66 2    
@<TRIPOS>SUBSTRUCTURE
     1 UNK         1 GROUP             0       ****    0 ROOT    
