@<TRIPOS>MOLECULE
3R135
127   129    1
SMALL
USER_CHARGES


@<TRIPOS>ATOM
      1 CA        -83.6203   30.6107  -77.1560 C.3       0 UNK        -0.1998 
      2 C         -82.5171   29.5757  -76.9931 C.2       0 UNK         0.4909 
      3 O         -82.1547   28.9085  -77.9631 O.2       0 UNK        -0.5240 
      4 N         -81.9745   29.4440  -75.7768 N.am      1 UNK        -0.4739 
      5 CA        -80.9599   28.4497  -75.4143 C.3       1 UNK         0.0864 
      6 C6        -80.1649   28.8794  -74.1534 C.3       11 UNK        -0.0881 
      7 S7        -81.1988   29.2091  -72.6825 S.3       11 UNK        -0.2682 
      8 C8        -80.0880   30.2650  -71.6916 C.3       11 UNK         0.0289 
      9 C9        -78.7555   29.5915  -71.3830 C.ar      11 UNK        -0.0687 
     10 C10       -78.7245   28.3353  -70.7727 C.ar      11 UNK        -0.0823 
     11 C11       -77.5084   27.6925  -70.5344 C.ar      11 UNK        -0.0830 
     12 C12       -76.3117   28.3399  -70.8596 C.ar      11 UNK        -0.1021 
     13 C13       -76.3200   29.6101  -71.4534 C.ar      11 UNK        -0.0753 
     14 C14       -77.5517   30.2200  -71.7178 C.ar      11 UNK        -0.0933 
     15 C15       -75.0451   30.3684  -71.8407 C.3       11 UNK         0.0166 
     16 S16       -73.4622   29.6530  -71.2710 S.3       11 UNK        -0.2615 
     17 C17       -73.1939   28.2782  -72.4448 C.3       11 UNK        -0.0865 
     18 CA        -71.7697   28.3060  -73.0604 C.3       10 UNK         0.0862 
     19 C         -71.4097   26.9434  -73.7273 C.2       10 UNK         0.5551 
     20 N         -71.1500   26.8704  -75.0281 N.am      10 UNK        -0.7319 
     21 O         -71.3296   25.9317  -73.0354 O.2       10 UNK        -0.5018 
     22 N         -71.5546   29.4842  -73.9187 N.am      10 UNK        -0.4509 
     23 C         -70.3437   29.9590  -74.2466 C.2       10 UNK         0.4899 
     24 O         -69.2939   29.5393  -73.7560 O.2       10 UNK        -0.4839 
     25 CA        -70.2928   31.0773  -75.3111 C.3       9 UNK         0.0222 
     26 CB        -68.9147   31.1811  -75.9990 C.3       9 UNK        -0.1966 
     27 N         -71.3604   30.9767  -76.3149 N.am      9 UNK        -0.4218 
     28 C         -71.6302   29.9331  -77.1134 C.2       9 UNK         0.5020 
     29 O         -70.9711   28.8921  -77.1460 O.2       9 UNK        -0.5274 
     30 CA        -72.9062   30.0491  -77.9637 C.3       8 UNK         0.0270 
     31 CB        -72.6963   29.4822  -79.3786 C.3       8 UNK        -0.1976 
     32 N         -74.0360   29.3589  -77.3373 N.am      8 UNK        -0.4313 
     33 C         -74.5520   29.6090  -76.1277 C.2       8 UNK         0.5041 
     34 O         -74.1198   30.4700  -75.3613 O.2       8 UNK        -0.5577 
     35 CA        -75.7438   28.7499  -75.6806 C.3       7 UNK         0.0284 
     36 CB        -77.0432   29.1795  -76.3860 C.3       7 UNK        -0.1958 
     37 N         -75.5188   27.3049  -75.7956 N.am      7 UNK        -0.4454 
     38 C         -75.3885   26.5341  -76.8836 C.2       7 UNK         0.5089 
     39 O         -75.3795   26.9738  -78.0342 O.2       7 UNK        -0.5125 
     40 CA        -75.2695   25.0112  -76.6624 C.3       6 UNK         0.0408 
     41 CB        -73.8059   24.5459  -76.7827 C.3       6 UNK        -0.1791 
     42 N         -75.8975   24.5204  -75.4234 N.am      6 UNK        -0.4762 
     43 C         -75.5309   24.7423  -74.1515 C.2       6 UNK         0.5007 
     44 O         -74.5452   25.4053  -73.8340 O.2       6 UNK        -0.5032 
     45 CA        -76.4740   24.2449  -73.0440 C.3       5 UNK         0.0783 
     46 C46       -77.4676   25.3723  -72.6813 C.3       11 UNK        -0.0857 
     47 S47       -78.3158   25.0792  -71.0926 S.3       11 UNK        -0.2512 
     48 C48       -77.4883   26.2724  -69.9807 C.3       11 UNK         0.0225 
     49 N         -77.1673   23.0154  -73.4312 N.am      5 UNK        -0.4615 
     50 C         -76.6508   21.7851  -73.3254 C.2       4 UNK         0.5053 
     51 O         -75.5348   21.5483  -72.8630 O.2       4 UNK        -0.5105 
     52 CA        -77.5310   20.6164  -73.8047 C.3       4 UNK         0.0263 
     53 CB        -78.3321   20.0346  -72.6287 C.3       4 UNK        -0.1981 
     54 N         -78.4558   20.9997  -74.8750 N.am      4 UNK        -0.4224 
     55 C         -78.0910   21.2338  -76.1437 C.2       3 UNK         0.4895 
     56 O         -76.9446   21.0871  -76.5676 O.2       3 UNK        -0.5091 
     57 CA        -79.1870   21.7449  -77.0963 C.3       3 UNK         0.0250 
     58 CB        -79.9097   20.5662  -77.7684 C.3       3 UNK        -0.1996 
     59 N         -80.1734   22.6231  -76.4531 N.am      3 UNK        -0.4254 
     60 C         -79.8843   23.8095  -75.9022 C.2       2 UNK         0.5004 
     61 O         -78.7421   24.2703  -75.8262 O.2       2 UNK        -0.5226 
     62 CA        -81.0481   24.5975  -75.2955 C.3       2 UNK         0.0269 
     63 CB        -81.3111   24.1525  -73.8444 C.3       2 UNK        -0.1926 
     64 N         -80.6997   26.0152  -75.3365 N.am      2 UNK        -0.4687 
     65 C         -81.5647   27.0333  -75.2776 C.2       1 UNK         0.5165 
     66 O         -82.7803   26.8833  -75.1204 O.2       1 UNK        -0.5079 
     67 H67       -83.8275   31.1354  -76.2235 H         1 UNK         0.0900 
     68 H68       -83.3347   31.3495  -77.9044 H         1 UNK         0.0900 
     69 H69       -84.5404   30.1289  -77.4856 H         1 UNK         0.0900 
     70 H70       -82.3336   29.9872  -75.0043 H         1 UNK         0.2959 
     71 H71       -80.2522   28.3990  -76.2446 H         1 UNK         0.1079 
     72 H72       -79.6010   29.7851  -74.3827 H         1 UNK         0.0837 
     73 H73       -79.4160   28.1297  -73.8900 H         1 UNK         0.0837 
     74 H74       -80.5835   30.5153  -70.7528 H         1 UNK         0.0685 
     75 H75       -79.9354   31.2067  -72.2211 H         1 UNK         0.0685 
     76 H76       -79.6514   27.8352  -70.5262 H         1 UNK         0.1434 
     77 H77       -75.3792   27.8334  -70.6617 H         1 UNK         0.1329 
     78 H78       -77.5714   31.1941  -72.1879 H         1 UNK         0.1335 
     79 H79       -75.0143   30.4942  -72.9219 H         1 UNK         0.0680 
     80 H80       -75.1097   31.3746  -71.4239 H         1 UNK         0.0680 
     81 H81       -73.9492   28.2937  -73.2305 H         1 UNK         0.1032 
     82 H82       -73.3557   27.3483  -71.8959 H         1 UNK         0.1032 
     83 H83       -71.0730   28.3944  -72.2242 H         1 UNK         0.0461 
     84 H84       -70.8987   25.9786  -75.4211 H         1 UNK         0.3453 
     85 H85       -71.1523   27.6939  -75.6213 H         1 UNK         0.3453 
     86 H86       -72.3764   29.8816  -74.3616 H         1 UNK         0.2984 
     87 H87       -70.4662   32.0111  -74.7747 H         1 UNK         0.0554 
     88 H88       -68.1276   31.3899  -75.2734 H         1 UNK         0.0847 
     89 H89       -68.8964   31.9866  -76.7331 H         1 UNK         0.0847 
     90 H90       -68.6482   30.2553  -76.5102 H         1 UNK         0.0847 
     91 H91       -72.0252   31.7392  -76.3131 H         1 UNK         0.3141 
     92 H92       -73.1689   31.1046  -78.0593 H         1 UNK         0.0743 
     93 H93       -71.8517   29.9653  -79.8715 H         1 UNK         0.0784 
     94 H94       -73.5736   29.6446  -80.0051 H         1 UNK         0.0784 
     95 H95       -72.4937   28.4103  -79.3589 H         1 UNK         0.0784 
     96 H96       -74.4462   28.5825  -77.8521 H         1 UNK         0.3213 
     97 H97       -75.8856   28.9361  -74.6151 H         1 UNK         0.0855 
     98 H98       -76.9781   29.0763  -77.4695 H         1 UNK         0.0814 
     99 H99       -77.2744   30.2239  -76.1724 H         1 UNK         0.0814 
    100 H100      -77.8859   28.5814  -76.0451 H         1 UNK         0.0814 
    101 H101      -75.3824   26.8175  -74.9164 H         1 UNK         0.3105 
    102 H102      -75.8299   24.5416  -77.4722 H         1 UNK         0.0547 
    103 H103      -73.7259   23.4632  -76.6874 H         1 UNK         0.0837 
    104 H104      -73.1683   24.9984  -76.0235 H         1 UNK         0.0837 
    105 H105      -73.3911   24.8183  -77.7540 H         1 UNK         0.0837 
    106 H106      -76.8052   24.0847  -75.5644 H         1 UNK         0.3020 
    107 H107      -75.8490   24.0411  -72.1709 H         1 UNK         0.1245 
    108 H108      -78.2274   25.4828  -73.4561 H         1 UNK         0.0781 
    109 H109      -76.9583   26.3349  -72.6487 H         1 UNK         0.0781 
    110 H110      -76.4647   25.9371  -69.8065 H         1 UNK         0.0836 
    111 H111      -77.9855   26.2582  -69.0100 H         1 UNK         0.0836 
    112 H112      -78.0775   23.1290  -73.8515 H         1 UNK         0.3022 
    113 H113      -76.8671   19.8367  -74.1849 H         1 UNK         0.0747 
    114 H114      -78.9111   19.1631  -72.9350 H         1 UNK         0.0793 
    115 H115      -77.6671   19.7134  -71.8256 H         1 UNK         0.0793 
    116 H116      -79.0220   20.7666  -72.2065 H         1 UNK         0.0793 
    117 H117      -79.4250   21.1255  -74.6224 H         1 UNK         0.3047 
    118 H118      -78.6896   22.3270  -77.8754 H         1 UNK         0.0822 
    119 H119      -80.6180   20.9118  -78.5217 H         1 UNK         0.0807 
    120 H120      -80.4564   19.9598  -77.0452 H         1 UNK         0.0807 
    121 H121      -79.1993   19.9096  -78.2731 H         1 UNK         0.0807 
    122 H122      -81.1336   22.3087  -76.4646 H         1 UNK         0.2946 
    123 H123      -81.9407   24.4304  -75.9030 H         1 UNK         0.1144 
    124 H124      -82.1470   24.6979  -73.4062 H         1 UNK         0.0793 
    125 H125      -80.4411   24.3144  -73.2078 H         1 UNK         0.0793 
    126 H126      -81.5602   23.0919  -73.7957 H         1 UNK         0.0793 
    127 H127      -79.7148   26.1846  -75.5007 H         1 UNK         0.2896 
@<TRIPOS>BOND
     1    1    2 1    
     2    1   67 1    
     3    1   68 1    
     4    1   69 1    
     5    2    3 2    
     6    2    4 am   BACKBONE|DICT|INTERRES
     7    4    5 1    
     8    4   70 1    
     9    5    6 1    
    10    5   65 1    
    11    5   71 1    
    12    6    7 1    
    13    6   72 1    
    14    6   73 1    
    15    7    8 1    
    16    8    9 1    
    17    8   74 1    
    18    8   75 1    
    19    9   10 ar   
    20    9   14 ar   
    21   10   11 ar   
    22   10   76 1    
    23   11   12 ar   
    24   11   48 1    
    25   12   13 ar   
    26   12   77 1    
    27   13   14 ar   
    28   13   15 1    
    29   14   78 1    
    30   15   16 1    
    31   15   79 1    
    32   15   80 1    
    33   16   17 1    
    34   17   18 1    
    35   17   81 1    
    36   17   82 1    
    37   18   19 1    
    38   18   22 1    
    39   18   83 1    
    40   19   20 am   BACKBONE|DICT|INTERRES
    41   19   21 2    
    42   20   84 1    
    43   20   85 1    
    44   22   23 am   BACKBONE|DICT|INTERRES
    45   22   86 1    
    46   23   24 2    
    47   23   25 1    
    48   25   26 1    
    49   25   27 1    
    50   25   87 1    
    51   26   88 1    
    52   26   89 1    
    53   26   90 1    
    54   27   28 am   BACKBONE|DICT|INTERRES
    55   27   91 1    
    56   28   29 2    
    57   28   30 1    
    58   30   31 1    
    59   30   32 1    
    60   30   92 1    
    61   31   93 1    
    62   31   94 1    
    63   31   95 1    
    64   32   33 am   BACKBONE|DICT|INTERRES
    65   32   96 1    
    66   33   34 2    
    67   33   35 1    
    68   35   36 1    
    69   35   37 1    
    70   35   97 1    
    71   36   98 1    
    72   36   99 1    
    73   36  100 1    
    74   37   38 am   BACKBONE|DICT|INTERRES
    75   37  101 1    
    76   38   39 2    
    77   38   40 1    
    78   40   41 1    
    79   40   42 1    
    80   40  102 1    
    81   41  103 1    
    82   41  104 1    
    83   41  105 1    
    84   42   43 am   BACKBONE|DICT|INTERRES
    85   42  106 1    
    86   43   44 2    
    87   43   45 1    
    88   45   46 1    
    89   45   49 1    
    90   45  107 1    
    91   46   47 1    
    92   46  108 1    
    93   46  109 1    
    94   47   48 1    
    95   48  110 1    
    96   48  111 1    
    97   49   50 am   BACKBONE|DICT|INTERRES
    98   49  112 1    
    99   50   51 2    
   100   50   52 1    
   101   52   53 1    
   102   52   54 1    
   103   52  113 1    
   104   53  114 1    
   105   53  115 1    
   106   53  116 1    
   107   54   55 am   BACKBONE|DICT|INTERRES
   108   54  117 1    
   109   55   56 2    
   110   55   57 1    
   111   57   58 1    
   112   57   59 1    
   113   57  118 1    
   114   58  119 1    
   115   58  120 1    
   116   58  121 1    
   117   59   60 am   BACKBONE|DICT|INTERRES
   118   59  122 1    
   119   60   61 2    
   120   60   62 1    
   121   62   63 1    
   122   62   64 1    
   123   62  123 1    
   124   63  124 1    
   125   63  125 1    
   126   63  126 1    
   127   64   65 am   BACKBONE|DICT|INTERRES
   128   64  127 1    
   129   65   66 2    
@<TRIPOS>SUBSTRUCTURE
     1 UNK         1 GROUP             0       ****    0 ROOT    
