@<TRIPOS>MOLECULE
3R135
127   129    1
SMALL
USER_CHARGES


@<TRIPOS>ATOM
      1 CA        -82.1257   23.8906  -72.4220 C.3       0 UNK        -0.1998 
      2 C         -80.9884   24.6222  -71.7128 C.2       0 UNK         0.4909 
      3 O         -80.3324   24.0249  -70.8626 O.2       0 UNK        -0.5240 
      4 N         -80.7217   25.9004  -72.0140 N.am      1 UNK        -0.4739 
      5 CA        -81.4130   26.7276  -73.0095 C.3       1 UNK         0.0864 
      6 C6        -81.2756   28.2417  -72.7191 C.3       11 UNK        -0.0881 
      7 S7        -81.9782   28.6913  -71.0937 S.3       11 UNK        -0.2682 
      8 C8        -80.9866   30.1545  -70.6290 C.3       11 UNK         0.0289 
      9 C9        -79.4789   29.9140  -70.6310 C.ar      11 UNK        -0.0687 
     10 C10       -78.9358   28.7241  -70.1316 C.ar      11 UNK        -0.0823 
     11 C11       -77.5605   28.4940  -70.1967 C.ar      11 UNK        -0.0830 
     12 C12       -76.7182   29.4925  -70.6859 C.ar      11 UNK        -0.1021 
     13 C13       -77.2416   30.6765  -71.2089 C.ar      11 UNK        -0.0753 
     14 C14       -78.6248   30.8830  -71.1716 C.ar      11 UNK        -0.0933 
     15 C15       -76.3194   31.7132  -71.8421 C.3       11 UNK         0.0166 
     16 S16       -75.4593   31.0590  -73.3176 S.3       11 UNK        -0.2615 
     17 C17       -73.9906   30.2588  -72.5785 C.3       11 UNK        -0.0865 
     18 CA        -72.6776   30.6261  -73.3151 C.3       10 UNK         0.0862 
     19 C         -71.4302   30.3374  -72.4233 C.2       10 UNK         0.5551 
     20 N         -70.4753   29.5092  -72.8289 N.am      10 UNK        -0.7319 
     21 O         -71.3229   30.8910  -71.3318 O.2       10 UNK        -0.5018 
     22 N         -72.6315   30.0127  -74.6517 N.am      10 UNK        -0.4509 
     23 C         -71.8547   30.4373  -75.6562 C.2       10 UNK         0.4899 
     24 O         -71.1800   31.4675  -75.6100 O.2       10 UNK        -0.4839 
     25 CA        -71.8118   29.5422  -76.9115 C.3       9 UNK         0.0222 
     26 CB        -70.6136   29.8570  -77.8315 C.3       9 UNK        -0.1966 
     27 N         -71.8572   28.1064  -76.6016 N.am      9 UNK        -0.4218 
     28 C         -71.0135   27.4129  -75.8174 C.2       9 UNK         0.5020 
     29 O         -70.0489   27.9196  -75.2437 O.2       9 UNK        -0.5274 
     30 CA        -71.2944   25.9143  -75.5929 C.3       8 UNK         0.0270 
     31 CB        -71.6183   25.6385  -74.1137 C.3       8 UNK        -0.1976 
     32 N         -72.3886   25.4089  -76.4229 N.am      8 UNK        -0.4313 
     33 C         -72.2593   25.0057  -77.6940 C.2       8 UNK         0.5041 
     34 O         -71.1796   24.9266  -78.2809 O.2       8 UNK        -0.5577 
     35 CA        -73.5548   24.6586  -78.4503 C.3       7 UNK         0.0284 
     36 CB        -73.8058   23.1429  -78.4078 C.3       7 UNK        -0.1958 
     37 N         -74.7393   25.3681  -77.9496 N.am      7 UNK        -0.4454 
     38 C         -74.9025   26.6998  -77.9907 C.2       7 UNK         0.5089 
     39 O         -74.0785   27.4709  -78.4803 O.2       7 UNK        -0.5125 
     40 CA        -76.1554   27.2801  -77.3144 C.3       6 UNK         0.0408 
     41 CB        -77.3628   27.2176  -78.2601 C.3       6 UNK        -0.1791 
     42 N         -76.4765   26.6189  -76.0474 N.am      6 UNK        -0.4762 
     43 C         -75.7006   26.6414  -74.9517 C.2       6 UNK         0.5007 
     44 O         -74.6268   27.2437  -74.8926 O.2       6 UNK        -0.5032 
     45 CA        -76.1857   25.8383  -73.7285 C.3       5 UNK         0.0783 
     46 C46       -76.8027   26.7759  -72.6674 C.3       11 UNK        -0.0857 
     47 S47       -77.2952   25.9016  -71.1370 S.3       11 UNK        -0.2512 
     48 C48       -76.9827   27.1369  -69.8272 C.3       11 UNK         0.0225 
     49 N         -77.1018   24.7661  -74.1359 N.am      5 UNK        -0.4615 
     50 C         -76.6850   23.5443  -74.4908 C.2       4 UNK         0.5053 
     51 O         -75.5029   23.1985  -74.4906 O.2       4 UNK        -0.5105 
     52 CA        -77.7597   22.5417  -74.9397 C.3       4 UNK         0.0263 
     53 CB        -78.7018   22.1820  -73.7801 C.3       4 UNK        -0.1981 
     54 N         -78.5503   22.9863  -76.0896 N.am      4 UNK        -0.4224 
     55 C         -78.0778   23.3447  -77.2904 C.2       3 UNK         0.4895 
     56 O         -76.8828   23.4607  -77.5545 O.2       3 UNK        -0.5091 
     57 CA        -79.1131   23.6470  -78.3884 C.3       3 UNK         0.0250 
     58 CB        -79.8831   22.3809  -78.8157 C.3       3 UNK        -0.1996 
     59 N         -80.0126   24.7546  -78.0431 N.am      3 UNK        -0.4254 
     60 C         -80.9216   24.8067  -77.0610 C.2       2 UNK         0.5004 
     61 O         -81.2422   23.8474  -76.3533 O.2       2 UNK        -0.5226 
     62 CA        -81.5627   26.1828  -76.8194 C.3       2 UNK         0.0269 
     63 CB        -82.8861   26.2997  -77.5924 C.3       2 UNK        -0.1926 
     64 N         -81.8105   26.4502  -75.4001 N.am      2 UNK        -0.4687 
     65 C         -80.8925   26.4111  -74.4229 C.2       1 UNK         0.5165 
     66 O         -79.6939   26.1662  -74.5998 O.2       1 UNK        -0.5079 
     67 H67       -83.0861   24.3547  -72.2006 H         1 UNK         0.0900 
     68 H68       -81.9765   23.8769  -73.5013 H         1 UNK         0.0900 
     69 H69       -82.1766   22.8544  -72.0878 H         1 UNK         0.0900 
     70 H70       -79.9274   26.3391  -71.5705 H         1 UNK         0.2959 
     71 H71       -82.4779   26.4905  -72.9759 H         1 UNK         0.1079 
     72 H72       -81.7968   28.8301  -73.4770 H         1 UNK         0.0837 
     73 H73       -80.2273   28.5394  -72.7746 H         1 UNK         0.0837 
     74 H74       -81.2440   30.9677  -71.3095 H         1 UNK         0.0685 
     75 H75       -81.2869   30.4788  -69.6320 H         1 UNK         0.0685 
     76 H76       -79.5862   27.9537  -69.7408 H         1 UNK         0.1434 
     77 H77       -75.6554   29.3121  -70.7155 H         1 UNK         0.1329 
     78 H78       -79.0395   31.7958  -71.5771 H         1 UNK         0.1335 
     79 H79       -76.8940   32.5881  -72.1498 H         1 UNK         0.0680 
     80 H80       -75.6005   32.0722  -71.1046 H         1 UNK         0.0680 
     81 H81       -73.9274   30.5563  -71.5307 H         1 UNK         0.1032 
     82 H82       -74.1357   29.1771  -72.5783 H         1 UNK         0.1032 
     83 H83       -72.6769   31.7091  -73.4537 H         1 UNK         0.0461 
     84 H84       -70.5080   29.0575  -73.7371 H         1 UNK         0.3453 
     85 H85       -69.6824   29.3516  -72.2282 H         1 UNK         0.3453 
     86 H86       -73.1616   29.1590  -74.7719 H         1 UNK         0.2984 
     87 H87       -72.7231   29.7611  -77.4696 H         1 UNK         0.0554 
     88 H88       -70.6401   30.8934  -78.1702 H         1 UNK         0.0847 
     89 H89       -70.6215   29.2272  -78.7211 H         1 UNK         0.0847 
     90 H90       -69.6617   29.7055  -77.3214 H         1 UNK         0.0847 
     91 H91       -72.6233   27.6070  -77.0401 H         1 UNK         0.3141 
     92 H92       -70.3796   25.3731  -75.8432 H         1 UNK         0.0743 
     93 H93       -72.4912   26.1966  -73.7754 H         1 UNK         0.0784 
     94 H94       -71.8077   24.5793  -73.9387 H         1 UNK         0.0784 
     95 H95       -70.7842   25.9266  -73.4723 H         1 UNK         0.0784 
     96 H96       -73.3171   25.4580  -76.0265 H         1 UNK         0.3213 
     97 H97       -73.4090   24.9515  -79.4923 H         1 UNK         0.0855 
     98 H98       -74.0244   22.7993  -77.3956 H         1 UNK         0.0814 
     99 H99       -72.9348   22.5896  -78.7617 H         1 UNK         0.0814 
    100 H100      -74.6451   22.8630  -79.0445 H         1 UNK         0.0814 
    101 H101      -75.4885   24.7878  -77.5783 H         1 UNK         0.3105 
    102 H102      -75.9562   28.3307  -77.0916 H         1 UNK         0.0547 
    103 H103      -77.1739   27.7966  -79.1651 H         1 UNK         0.0837 
    104 H104      -77.5758   26.1960  -78.5710 H         1 UNK         0.0837 
    105 H105      -78.2576   27.6295  -77.7935 H         1 UNK         0.0837 
    106 H106      -77.3447   26.1051  -75.9989 H         1 UNK         0.3020 
    107 H107      -75.2934   25.3939  -73.2806 H         1 UNK         0.1245 
    108 H108      -76.0730   27.5436  -72.4103 H         1 UNK         0.0781 
    109 H109      -77.6755   27.2988  -73.0634 H         1 UNK         0.0781 
    110 H110      -77.4236   26.7882  -68.8922 H         1 UNK         0.0836 
    111 H111      -75.9081   27.2076  -69.6522 H         1 UNK         0.0836 
    112 H112      -78.0885   25.0038  -74.1725 H         1 UNK         0.3022 
    113 H113      -77.2413   21.6301  -75.2440 H         1 UNK         0.0747 
    114 H114      -79.3681   21.3623  -74.0492 H         1 UNK         0.0793 
    115 H115      -78.1406   21.8684  -72.8987 H         1 UNK         0.0793 
    116 H116      -79.3189   23.0313  -73.4889 H         1 UNK         0.0793 
    117 H117      -79.5603   23.0148  -75.9738 H         1 UNK         0.3047 
    118 H118      -78.5507   23.9837  -79.2610 H         1 UNK         0.0822 
    119 H119      -80.5628   22.5926  -79.6411 H         1 UNK         0.0807 
    120 H120      -80.4703   21.9545  -78.0022 H         1 UNK         0.0807 
    121 H121      -79.1943   21.6061  -79.1548 H         1 UNK         0.0807 
    122 H122      -79.8581   25.5989  -78.5760 H         1 UNK         0.2946 
    123 H123      -80.8777   26.9551  -77.1760 H         1 UNK         0.1144 
    124 H124      -83.3265   27.2909  -77.4817 H         1 UNK         0.0793 
    125 H125      -83.6177   25.5660  -77.2509 H         1 UNK         0.0793 
    126 H126      -82.7334   26.1335  -78.6598 H         1 UNK         0.0793 
    127 H127      -82.7687   26.6528  -75.1549 H         1 UNK         0.2896 
@<TRIPOS>BOND
     1    1    2 1    
     2    1   67 1    
     3    1   68 1    
     4    1   69 1    
     5    2    3 2    
     6    2    4 am   BACKBONE|DICT|INTERRES
     7    4    5 1    
     8    4   70 1    
     9    5    6 1    
    10    5   65 1    
    11    5   71 1    
    12    6    7 1    
    13    6   72 1    
    14    6   73 1    
    15    7    8 1    
    16    8    9 1    
    17    8   74 1    
    18    8   75 1    
    19    9   10 ar   
    20    9   14 ar   
    21   10   11 ar   
    22   10   76 1    
    23   11   12 ar   
    24   11   48 1    
    25   12   13 ar   
    26   12   77 1    
    27   13   14 ar   
    28   13   15 1    
    29   14   78 1    
    30   15   16 1    
    31   15   79 1    
    32   15   80 1    
    33   16   17 1    
    34   17   18 1    
    35   17   81 1    
    36   17   82 1    
    37   18   19 1    
    38   18   22 1    
    39   18   83 1    
    40   19   20 am   BACKBONE|DICT|INTERRES
    41   19   21 2    
    42   20   84 1    
    43   20   85 1    
    44   22   23 am   BACKBONE|DICT|INTERRES
    45   22   86 1    
    46   23   24 2    
    47   23   25 1    
    48   25   26 1    
    49   25   27 1    
    50   25   87 1    
    51   26   88 1    
    52   26   89 1    
    53   26   90 1    
    54   27   28 am   BACKBONE|DICT|INTERRES
    55   27   91 1    
    56   28   29 2    
    57   28   30 1    
    58   30   31 1    
    59   30   32 1    
    60   30   92 1    
    61   31   93 1    
    62   31   94 1    
    63   31   95 1    
    64   32   33 am   BACKBONE|DICT|INTERRES
    65   32   96 1    
    66   33   34 2    
    67   33   35 1    
    68   35   36 1    
    69   35   37 1    
    70   35   97 1    
    71   36   98 1    
    72   36   99 1    
    73   36  100 1    
    74   37   38 am   BACKBONE|DICT|INTERRES
    75   37  101 1    
    76   38   39 2    
    77   38   40 1    
    78   40   41 1    
    79   40   42 1    
    80   40  102 1    
    81   41  103 1    
    82   41  104 1    
    83   41  105 1    
    84   42   43 am   BACKBONE|DICT|INTERRES
    85   42  106 1    
    86   43   44 2    
    87   43   45 1    
    88   45   46 1    
    89   45   49 1    
    90   45  107 1    
    91   46   47 1    
    92   46  108 1    
    93   46  109 1    
    94   47   48 1    
    95   48  110 1    
    96   48  111 1    
    97   49   50 am   BACKBONE|DICT|INTERRES
    98   49  112 1    
    99   50   51 2    
   100   50   52 1    
   101   52   53 1    
   102   52   54 1    
   103   52  113 1    
   104   53  114 1    
   105   53  115 1    
   106   53  116 1    
   107   54   55 am   BACKBONE|DICT|INTERRES
   108   54  117 1    
   109   55   56 2    
   110   55   57 1    
   111   57   58 1    
   112   57   59 1    
   113   57  118 1    
   114   58  119 1    
   115   58  120 1    
   116   58  121 1    
   117   59   60 am   BACKBONE|DICT|INTERRES
   118   59  122 1    
   119   60   61 2    
   120   60   62 1    
   121   62   63 1    
   122   62   64 1    
   123   62  123 1    
   124   63  124 1    
   125   63  125 1    
   126   63  126 1    
   127   64   65 am   BACKBONE|DICT|INTERRES
   128   64  127 1    
   129   65   66 2    
@<TRIPOS>SUBSTRUCTURE
     1 UNK         1 GROUP             0       ****    0 ROOT    
