@<TRIPOS>MOLECULE
3R135
127   129    1
SMALL
USER_CHARGES


@<TRIPOS>ATOM
      1 CA        -80.6836   25.4576  -77.7758 C.3       0 UNK        -0.1998 
      2 C         -80.3910   25.8231  -76.3304 C.2       0 UNK         0.4909 
      3 O         -80.1034   24.9410  -75.5213 O.2       0 UNK        -0.5240 
      4 N         -80.4805   27.1121  -75.9824 N.am      1 UNK        -0.4739 
      5 CA        -80.1554   27.6730  -74.6583 C.3       1 UNK         0.0864 
      6 C6        -80.1287   29.2202  -74.6937 C.3       11 UNK        -0.0881 
      7 S7        -78.8925   29.8243  -75.8963 S.3       11 UNK        -0.2682 
      8 C8        -77.6384   30.6062  -74.8302 C.3       11 UNK         0.0289 
      9 C9        -77.1116   29.6930  -73.7283 C.ar      11 UNK        -0.0687 
     10 C10       -76.5014   28.4710  -74.0345 C.ar      11 UNK        -0.0823 
     11 C11       -75.9743   27.6576  -73.0187 C.ar      11 UNK        -0.0830 
     12 C12       -76.0796   28.0834  -71.6915 C.ar      11 UNK        -0.1021 
     13 C13       -76.6743   29.3067  -71.3743 C.ar      11 UNK        -0.0753 
     14 C14       -77.1941   30.1029  -72.3958 C.ar      11 UNK        -0.0933 
     15 C15       -76.7481   29.7799  -69.9309 C.3       11 UNK         0.0166 
     16 S16       -75.4263   30.9738  -69.5449 S.3       11 UNK        -0.2615 
     17 C17       -73.9501   29.8991  -69.4768 C.3       11 UNK        -0.0865 
     18 CA        -72.8696   30.2526  -70.5345 C.3       10 UNK         0.0862 
     19 C         -71.6034   29.3668  -70.3290 C.2       10 UNK         0.5551 
     20 N         -71.2269   28.4982  -71.2605 N.am      10 UNK        -0.7319 
     21 O         -70.9475   29.4738  -69.2956 O.2       10 UNK        -0.5018 
     22 N         -73.4064   30.2496  -71.9054 N.am      10 UNK        -0.4509 
     23 C         -72.7953   30.7985  -72.9617 C.2       10 UNK         0.4899 
     24 O         -71.7521   31.4526  -72.9001 O.2       10 UNK        -0.4839 
     25 CA        -73.4551   30.5565  -74.3285 C.3       9 UNK         0.0222 
     26 CB        -73.8663   31.8805  -74.9922 C.3       9 UNK        -0.1966 
     27 N         -72.5939   29.7974  -75.2374 N.am      9 UNK        -0.4218 
     28 C         -72.0634   28.5911  -74.9977 C.2       9 UNK         0.5020 
     29 O         -72.2494   27.9583  -73.9558 O.2       9 UNK        -0.5274 
     30 CA        -71.1720   27.9981  -76.1096 C.3       8 UNK         0.0270 
     31 CB        -70.5662   26.6382  -75.7122 C.3       8 UNK        -0.1976 
     32 N         -71.8671   27.8407  -77.3917 N.am      8 UNK        -0.4313 
     33 C         -72.2028   28.8224  -78.2403 C.2       8 UNK         0.5041 
     34 O         -72.0004   30.0153  -78.0045 O.2       8 UNK        -0.5577 
     35 CA        -72.8454   28.4234  -79.5846 C.3       7 UNK         0.0284 
     36 CB        -71.8890   28.7371  -80.7479 C.3       7 UNK        -0.1958 
     37 N         -73.2347   27.0098  -79.6624 N.am      7 UNK        -0.4454 
     38 C         -74.3546   26.4980  -79.1346 C.2       7 UNK         0.5089 
     39 O         -75.1888   27.1822  -78.5393 O.2       7 UNK        -0.5125 
     40 CA        -74.5825   24.9780  -79.2805 C.3       6 UNK         0.0408 
     41 CB        -73.3170   24.1872  -79.6728 C.3       6 UNK        -0.1791 
     42 N         -75.0857   24.4620  -78.0093 N.am      6 UNK        -0.4762 
     43 C         -76.3604   24.1609  -77.7380 C.2       6 UNK         0.5007 
     44 O         -77.2539   24.1004  -78.5873 O.2       6 UNK        -0.5032 
     45 CA        -76.6827   23.9561  -76.2422 C.3       5 UNK         0.0783 
     46 C46       -76.7007   25.3123  -75.4889 C.3       11 UNK        -0.0857 
     47 S47       -75.0248   25.8683  -75.0291 S.3       11 UNK        -0.2512 
     48 C48       -75.2556   26.3305  -73.2796 C.3       11 UNK         0.0225 
     49 N         -77.9484   23.2544  -76.0480 N.am      5 UNK        -0.4615 
     50 C         -78.1662   21.9471  -76.2218 C.2       4 UNK         0.5053 
     51 O         -77.3007   21.1495  -76.5875 O.2       4 UNK        -0.5105 
     52 CA        -79.5963   21.4643  -75.8937 C.3       4 UNK         0.0263 
     53 CB        -79.7182   19.9274  -75.8116 C.3       4 UNK        -0.1981 
     54 N         -80.1367   22.1109  -74.6860 N.am      4 UNK        -0.4224 
     55 C         -79.6318   22.0510  -73.4423 C.2       3 UNK         0.4895 
     56 O         -78.7066   21.3052  -73.1178 O.2       3 UNK        -0.5091 
     57 CA        -80.2289   22.9908  -72.3775 C.3       3 UNK         0.0250 
     58 CB        -79.1217   23.7145  -71.5844 C.3       3 UNK        -0.1996 
     59 N         -81.1414   23.9966  -72.9336 N.am      3 UNK        -0.4254 
     60 C         -82.2413   24.4542  -72.3140 C.2       2 UNK         0.5004 
     61 O         -82.6658   23.9853  -71.2561 O.2       2 UNK        -0.5226 
     62 CA        -82.9947   25.6335  -72.9744 C.3       2 UNK         0.0269 
     63 CB        -83.7468   26.5098  -71.9496 C.3       2 UNK        -0.1926 
     64 N         -82.1445   26.4581  -73.8447 N.am      2 UNK        -0.4687 
     65 C         -81.0411   27.1458  -73.5044 C.2       1 UNK         0.5165 
     66 O         -80.6796   27.3271  -72.3418 O.2       1 UNK        -0.5079 
     67 H67       -80.9261   26.3339  -78.3765 H         1 UNK         0.0900 
     68 H68       -81.5241   24.7663  -77.8252 H         1 UNK         0.0900 
     69 H69       -79.8162   24.9712  -78.2205 H         1 UNK         0.0900 
     70 H70       -80.7175   27.7968  -76.6867 H         1 UNK         0.2959 
     71 H71       -79.1468   27.3313  -74.4157 H         1 UNK         0.1079 
     72 H72       -81.1076   29.6146  -74.9723 H         1 UNK         0.0837 
     73 H73       -79.9074   29.6315  -73.7070 H         1 UNK         0.0837 
     74 H74       -78.0659   31.5169  -74.4078 H         1 UNK         0.0685 
     75 H75       -76.8014   30.9229  -75.4532 H         1 UNK         0.0685 
     76 H76       -76.4245   28.1818  -75.0724 H         1 UNK         0.1434 
     77 H77       -75.6796   27.4633  -70.9007 H         1 UNK         0.1329 
     78 H78       -77.6483   31.0530  -72.1491 H         1 UNK         0.1335 
     79 H79       -76.6977   28.9363  -69.2406 H         1 UNK         0.0680 
     80 H80       -77.7136   30.2569  -69.7552 H         1 UNK         0.0680 
     81 H81       -73.5337   29.9953  -68.4720 H         1 UNK         0.1032 
     82 H82       -74.2442   28.8532  -69.5698 H         1 UNK         0.1032 
     83 H83       -72.5480   31.2757  -70.3300 H         1 UNK         0.0461 
     84 H84       -71.7415   28.3993  -72.1310 H         1 UNK         0.3453 
     85 H85       -70.4051   27.9378  -71.1031 H         1 UNK         0.3453 
     86 H86       -74.2624   29.7302  -72.0452 H         1 UNK         0.2984 
     87 H87       -74.3533   29.9638  -74.1787 H         1 UNK         0.0554 
     88 H88       -74.5404   32.4455  -74.3471 H         1 UNK         0.0847 
     89 H89       -74.3870   31.7083  -75.9343 H         1 UNK         0.0847 
     90 H90       -73.0023   32.5137  -75.1978 H         1 UNK         0.0847 
     91 H91       -72.3914   30.2116  -76.1442 H         1 UNK         0.3141 
     92 H92       -70.3452   28.6964  -76.2556 H         1 UNK         0.0743 
     93 H93       -69.9941   26.7208  -74.7870 H         1 UNK         0.0784 
     94 H94       -71.3388   25.8850  -75.5507 H         1 UNK         0.0784 
     95 H95       -69.8856   26.2654  -76.4779 H         1 UNK         0.0784 
     96 H96       -72.1042   26.8970  -77.6559 H         1 UNK         0.3213 
     97 H97       -73.7387   29.0403  -79.7066 H         1 UNK         0.0855 
     98 H98       -70.9678   28.1566  -80.6828 H         1 UNK         0.0814 
     99 H99       -71.6088   29.7916  -80.7506 H         1 UNK         0.0814 
    100 H100      -72.3529   28.5268  -81.7118 H         1 UNK         0.0814 
    101 H101      -72.6001   26.3902  -80.1461 H         1 UNK         0.3105 
    102 H102      -75.3252   24.8400  -80.0688 H         1 UNK         0.0547 
    103 H103      -72.5020   24.3360  -78.9632 H         1 UNK         0.0837 
    104 H104      -73.5247   23.1176  -79.7112 H         1 UNK         0.0837 
    105 H105      -72.9592   24.4697  -80.6635 H         1 UNK         0.0837 
    106 H106      -74.4598   24.5632  -77.2214 H         1 UNK         0.3020 
    107 H107      -75.9043   23.3191  -75.8150 H         1 UNK         0.1245 
    108 H108      -77.2907   25.2234  -74.5749 H         1 UNK         0.0781 
    109 H109      -77.1919   26.0917  -76.0756 H         1 UNK         0.0781 
    110 H110      -75.7781   25.5256  -72.7606 H         1 UNK         0.0836 
    111 H111      -74.2637   26.3888  -72.8286 H         1 UNK         0.0836 
    112 H112      -78.7405   23.8387  -75.7873 H         1 UNK         0.3022 
    113 H113      -80.2219   21.7984  -76.7228 H         1 UNK         0.0747 
    114 H114      -79.4408   19.4642  -76.7592 H         1 UNK         0.0793 
    115 H115      -80.7405   19.6220  -75.5892 H         1 UNK         0.0793 
    116 H116      -79.0675   19.5071  -75.0443 H         1 UNK         0.0793 
    117 H117      -80.8841   22.7703  -74.8521 H         1 UNK         0.3047 
    118 H118      -80.7770   22.3428  -71.6905 H         1 UNK         0.0822 
    119 H119      -78.4443   23.0052  -71.1073 H         1 UNK         0.0807 
    120 H120      -79.5419   24.3368  -70.7940 H         1 UNK         0.0807 
    121 H121      -78.5229   24.3573  -72.2311 H         1 UNK         0.0807 
    122 H122      -80.8427   24.4459  -73.7956 H         1 UNK         0.2946 
    123 H123      -83.7426   25.1754  -73.6239 H         1 UNK         0.1144 
    124 H124      -84.4944   25.9274  -71.4097 H         1 UNK         0.0793 
    125 H125      -84.2709   27.3311  -72.4383 H         1 UNK         0.0793 
    126 H126      -83.0717   26.9363  -71.2072 H         1 UNK         0.0793 
    127 H127      -82.3344   26.3808  -74.8345 H         1 UNK         0.2896 
@<TRIPOS>BOND
     1    1    2 1    
     2    1   67 1    
     3    1   68 1    
     4    1   69 1    
     5    2    3 2    
     6    2    4 am   BACKBONE|DICT|INTERRES
     7    4    5 1    
     8    4   70 1    
     9    5    6 1    
    10    5   65 1    
    11    5   71 1    
    12    6    7 1    
    13    6   72 1    
    14    6   73 1    
    15    7    8 1    
    16    8    9 1    
    17    8   74 1    
    18    8   75 1    
    19    9   10 ar   
    20    9   14 ar   
    21   10   11 ar   
    22   10   76 1    
    23   11   12 ar   
    24   11   48 1    
    25   12   13 ar   
    26   12   77 1    
    27   13   14 ar   
    28   13   15 1    
    29   14   78 1    
    30   15   16 1    
    31   15   79 1    
    32   15   80 1    
    33   16   17 1    
    34   17   18 1    
    35   17   81 1    
    36   17   82 1    
    37   18   19 1    
    38   18   22 1    
    39   18   83 1    
    40   19   20 am   BACKBONE|DICT|INTERRES
    41   19   21 2    
    42   20   84 1    
    43   20   85 1    
    44   22   23 am   BACKBONE|DICT|INTERRES
    45   22   86 1    
    46   23   24 2    
    47   23   25 1    
    48   25   26 1    
    49   25   27 1    
    50   25   87 1    
    51   26   88 1    
    52   26   89 1    
    53   26   90 1    
    54   27   28 am   BACKBONE|DICT|INTERRES
    55   27   91 1    
    56   28   29 2    
    57   28   30 1    
    58   30   31 1    
    59   30   32 1    
    60   30   92 1    
    61   31   93 1    
    62   31   94 1    
    63   31   95 1    
    64   32   33 am   BACKBONE|DICT|INTERRES
    65   32   96 1    
    66   33   34 2    
    67   33   35 1    
    68   35   36 1    
    69   35   37 1    
    70   35   97 1    
    71   36   98 1    
    72   36   99 1    
    73   36  100 1    
    74   37   38 am   BACKBONE|DICT|INTERRES
    75   37  101 1    
    76   38   39 2    
    77   38   40 1    
    78   40   41 1    
    79   40   42 1    
    80   40  102 1    
    81   41  103 1    
    82   41  104 1    
    83   41  105 1    
    84   42   43 am   BACKBONE|DICT|INTERRES
    85   42  106 1    
    86   43   44 2    
    87   43   45 1    
    88   45   46 1    
    89   45   49 1    
    90   45  107 1    
    91   46   47 1    
    92   46  108 1    
    93   46  109 1    
    94   47   48 1    
    95   48  110 1    
    96   48  111 1    
    97   49   50 am   BACKBONE|DICT|INTERRES
    98   49  112 1    
    99   50   51 2    
   100   50   52 1    
   101   52   53 1    
   102   52   54 1    
   103   52  113 1    
   104   53  114 1    
   105   53  115 1    
   106   53  116 1    
   107   54   55 am   BACKBONE|DICT|INTERRES
   108   54  117 1    
   109   55   56 2    
   110   55   57 1    
   111   57   58 1    
   112   57   59 1    
   113   57  118 1    
   114   58  119 1    
   115   58  120 1    
   116   58  121 1    
   117   59   60 am   BACKBONE|DICT|INTERRES
   118   59  122 1    
   119   60   61 2    
   120   60   62 1    
   121   62   63 1    
   122   62   64 1    
   123   62  123 1    
   124   63  124 1    
   125   63  125 1    
   126   63  126 1    
   127   64   65 am   BACKBONE|DICT|INTERRES
   128   64  127 1    
   129   65   66 2    
@<TRIPOS>SUBSTRUCTURE
     1 UNK         1 GROUP             0       ****    0 ROOT    
