@<TRIPOS>MOLECULE
3R135
127   129    1
SMALL
USER_CHARGES


@<TRIPOS>ATOM
      1 CA        -82.1888   26.2375  -69.9563 C.3       0 UNK        -0.1998 
      2 C         -82.6578   26.7989  -71.2901 C.2       0 UNK         0.4909 
      3 O         -83.8594   26.8309  -71.5561 O.2       0 UNK        -0.5240 
      4 N         -81.7145   27.2360  -72.1332 N.am      1 UNK        -0.4739 
      5 CA        -81.9719   27.7934  -73.4682 C.3       1 UNK         0.0864 
      6 C6        -80.8070   28.7106  -73.9199 C.3       11 UNK        -0.0881 
      7 S7        -80.8074   30.3282  -73.0680 S.3       11 UNK        -0.2682 
      8 C8        -79.8515   30.0384  -71.5389 C.3       11 UNK         0.0289 
      9 C9        -78.4996   29.3826  -71.7854 C.ar      11 UNK        -0.0687 
     10 C10       -78.1972   28.1596  -71.1788 C.ar      11 UNK        -0.0823 
     11 C11       -76.9799   27.5217  -71.4344 C.ar      11 UNK        -0.0830 
     12 C12       -76.0479   28.1391  -72.2722 C.ar      11 UNK        -0.1021 
     13 C13       -76.3292   29.3665  -72.8750 C.ar      11 UNK        -0.0753 
     14 C14       -77.5559   29.9878  -72.6226 C.ar      11 UNK        -0.0933 
     15 C15       -75.3205   30.0016  -73.8203 C.3       11 UNK         0.0166 
     16 S16       -73.9235   30.7360  -72.9150 S.3       11 UNK        -0.2615 
     17 C17       -73.2738   31.8823  -74.1808 C.3       11 UNK        -0.0865 
     18 CA        -71.7378   32.0941  -74.1405 C.3       10 UNK         0.0862 
     19 C         -71.2616   32.8567  -72.8689 C.2       10 UNK         0.5551 
     20 N         -70.3251   32.3291  -72.0893 N.am      10 UNK        -0.7319 
     21 O         -71.7362   33.9572  -72.5977 O.2       10 UNK        -0.5018 
     22 N         -71.0058   30.8487  -74.4261 N.am      10 UNK        -0.4509 
     23 C         -69.8450   30.7862  -75.0923 C.2       10 UNK         0.4899 
     24 O         -69.2702   31.7776  -75.5440 O.2       10 UNK        -0.4839 
     25 CA        -69.1887   29.4040  -75.2957 C.3       9 UNK         0.0222 
     26 CB        -67.8516   29.3296  -74.5377 C.3       9 UNK        -0.1966 
     27 N         -70.0064   28.2448  -74.9187 N.am      9 UNK        -0.4218 
     28 C         -71.1309   27.8437  -75.5268 C.2       9 UNK         0.5020 
     29 O         -71.6717   28.4648  -76.4443 O.2       9 UNK        -0.5274 
     30 CA        -71.7573   26.5496  -74.9698 C.3       8 UNK         0.0270 
     31 CB        -72.3657   26.8121  -73.5815 C.3       8 UNK        -0.1976 
     32 N         -72.7908   25.9809  -75.8414 N.am      8 UNK        -0.4313 
     33 C         -72.5846   25.4892  -77.0737 C.2       8 UNK         0.5041 
     34 O         -71.4647   25.3660  -77.5743 O.2       8 UNK        -0.5577 
     35 CA        -73.8125   25.0349  -77.8945 C.3       7 UNK         0.0284 
     36 CB        -73.8469   23.5013  -78.0075 C.3       7 UNK        -0.1958 
     37 N         -75.0971   25.4908  -77.3608 N.am      7 UNK        -0.4454 
     38 C         -75.5208   26.7602  -77.3041 C.2       7 UNK         0.5089 
     39 O         -74.9313   27.7015  -77.8337 O.2       7 UNK        -0.5125 
     40 CA        -76.8033   27.0374  -76.4944 C.3       6 UNK         0.0408 
     41 CB        -77.9820   27.3326  -77.4344 C.3       6 UNK        -0.1791 
     42 N         -77.1965   25.9706  -75.5666 N.am      6 UNK        -0.4762 
     43 C         -76.4703   25.4876  -74.5467 C.2       6 UNK         0.5007 
     44 O         -75.3138   25.8298  -74.3067 O.2       6 UNK        -0.5032 
     45 CA        -77.1422   24.3941  -73.6978 C.3       5 UNK         0.0783 
     46 C46       -78.3013   24.9707  -72.8331 C.3       11 UNK        -0.0857 
     47 S47       -77.9762   24.9206  -71.0399 S.3       11 UNK        -0.2512 
     48 C48       -76.6576   26.1658  -70.8167 C.3       11 UNK         0.0225 
     49 N         -77.6018   23.3241  -74.5837 N.am      5 UNK        -0.4615 
     50 C         -76.8222   22.3648  -75.0989 C.2       4 UNK         0.5053 
     51 O         -75.6372   22.2155  -74.8036 O.2       4 UNK        -0.5105 
     52 CA        -77.4668   21.4113  -76.1227 C.3       4 UNK         0.0263 
     53 CB        -77.9107   20.1098  -75.4357 C.3       4 UNK        -0.1981 
     54 N         -78.6122   22.0005  -76.8228 N.am      4 UNK        -0.4224 
     55 C         -78.5266   22.9860  -77.7281 C.2       3 UNK         0.4895 
     56 O         -77.4637   23.4685  -78.1180 O.2       3 UNK        -0.5091 
     57 CA        -79.8570   23.5640  -78.2465 C.3       3 UNK         0.0250 
     58 CB        -80.3651   22.7520  -79.4484 C.3       3 UNK        -0.1996 
     59 N         -80.9126   23.6482  -77.2262 N.am      3 UNK        -0.4254 
     60 C         -80.8104   24.3376  -76.0813 C.2       2 UNK         0.5004 
     61 O         -79.7895   24.9373  -75.7382 O.2       2 UNK        -0.5226 
     62 CA        -82.0162   24.2990  -75.1289 C.3       2 UNK         0.0269 
     63 CB        -82.0162   22.9905  -74.3209 C.3       2 UNK        -0.1926 
     64 N         -81.9785   25.4274  -74.1953 N.am      2 UNK        -0.4687 
     65 C         -82.2471   26.6991  -74.5256 C.2       1 UNK         0.5165 
     66 O         -82.6924   27.0281  -75.6267 O.2       1 UNK        -0.5079 
     67 H67       -82.5610   26.8540  -69.1386 H         1 UNK         0.0900 
     68 H68       -81.1016   26.2005  -69.8871 H         1 UNK         0.0900 
     69 H69       -82.5694   25.2255  -69.8206 H         1 UNK         0.0900 
     70 H70       -80.7436   27.1851  -71.8642 H         1 UNK         0.2959 
     71 H71       -82.8819   28.3965  -73.4220 H         1 UNK         0.1079 
     72 H72       -79.8432   28.2112  -73.8097 H         1 UNK         0.0837 
     73 H73       -80.8899   28.9401  -74.9844 H         1 UNK         0.0837 
     74 H74       -79.6913   30.9960  -71.0420 H         1 UNK         0.0685 
     75 H75       -80.4570   29.4418  -70.8555 H         1 UNK         0.0685 
     76 H76       -78.9135   27.6905  -70.5189 H         1 UNK         0.1434 
     77 H77       -75.1011   27.6578  -72.4679 H         1 UNK         0.1329 
     78 H78       -77.7880   30.9344  -73.0913 H         1 UNK         0.1335 
     79 H79       -74.9432   29.2523  -74.5184 H         1 UNK         0.0680 
     80 H80       -75.8081   30.7691  -74.4236 H         1 UNK         0.0680 
     81 H81       -73.7920   32.8376  -74.0769 H         1 UNK         0.1032 
     82 H82       -73.5481   31.5108  -75.1697 H         1 UNK         0.1032 
     83 H83       -71.5247   32.7846  -74.9590 H         1 UNK         0.0461 
     84 H84       -70.0180   32.8336  -71.2727 H         1 UNK         0.3453 
     85 H85       -69.9287   31.4300  -72.3089 H         1 UNK         0.3453 
     86 H86       -71.4212   29.9980  -74.0775 H         1 UNK         0.2984 
     87 H87       -68.9749   29.3156  -76.3628 H         1 UNK         0.0554 
     88 H88       -67.3214   28.4020  -74.7544 H         1 UNK         0.0847 
     89 H89       -67.9945   29.3921  -73.4582 H         1 UNK         0.0847 
     90 H90       -67.1898   30.1482  -74.8250 H         1 UNK         0.0847 
     91 H91       -69.6511   27.6823  -74.1585 H         1 UNK         0.3141 
     92 H92       -70.9649   25.8049  -74.8710 H         1 UNK         0.0743 
     93 H93       -71.6123   27.1492  -72.8688 H         1 UNK         0.0784 
     94 H94       -73.1357   27.5821  -73.6289 H         1 UNK         0.0784 
     95 H95       -72.8163   25.9104  -73.1661 H         1 UNK         0.0784 
     96 H96       -73.7422   26.0167  -75.4864 H         1 UNK         0.3213 
     97 H97       -73.7015   25.4527  -78.8972 H         1 UNK         0.0855 
     98 H98       -72.9221   23.1192  -78.4418 H         1 UNK         0.0814 
     99 H99       -74.6652   23.1680  -78.6464 H         1 UNK         0.0814 
    100 H100      -73.9693   23.0289  -77.0319 H         1 UNK         0.0814 
    101 H101      -75.6927   24.7860  -76.9480 H         1 UNK         0.3105 
    102 H102      -76.6164   27.9290  -75.8931 H         1 UNK         0.0547 
    103 H103      -77.7542   28.1669  -78.0990 H         1 UNK         0.0837 
    104 H104      -78.2177   26.4713  -78.0597 H         1 UNK         0.0837 
    105 H105      -78.8803   27.5980  -76.8762 H         1 UNK         0.0837 
    106 H106      -78.1413   25.6045  -75.6860 H         1 UNK         0.3020 
    107 H107      -76.3730   23.9795  -73.0419 H         1 UNK         0.1245 
    108 H108      -79.2129   24.3917  -72.9857 H         1 UNK         0.0781 
    109 H109      -78.5791   25.9878  -73.1167 H         1 UNK         0.0781 
    110 H110      -75.7319   25.7648  -71.2330 H         1 UNK         0.0836 
    111 H111      -76.4783   26.2999  -69.7493 H         1 UNK         0.0836 
    112 H112      -78.5414   23.4282  -74.9428 H         1 UNK         0.3022 
    113 H113      -76.7046   21.1650  -76.8653 H         1 UNK         0.0747 
    114 H114      -78.3007   19.3923  -76.1580 H         1 UNK         0.0793 
    115 H115      -77.0718   19.6314  -74.9280 H         1 UNK         0.0793 
    116 H116      -78.6841   20.2899  -74.6878 H         1 UNK         0.0793 
    117 H117      -79.5284   21.6592  -76.5709 H         1 UNK         0.3047 
    118 H118      -79.6552   24.5812  -78.5876 H         1 UNK         0.0822 
    119 H119      -81.2466   23.2126  -79.8950 H         1 UNK         0.0807 
    120 H120      -80.6248   21.7305  -79.1677 H         1 UNK         0.0807 
    121 H121      -79.6043   22.6922  -80.2283 H         1 UNK         0.0807 
    122 H122      -81.7770   23.1671  -77.4312 H         1 UNK         0.2946 
    123 H123      -82.9332   24.3599  -75.7198 H         1 UNK         0.1144 
    124 H124      -82.8651   22.9481  -73.6380 H         1 UNK         0.0793 
    125 H125      -81.1065   22.8764  -73.7299 H         1 UNK         0.0793 
    126 H126      -82.0899   22.1217  -74.9763 H         1 UNK         0.0793 
    127 H127      -81.6089   25.2471  -73.2746 H         1 UNK         0.2896 
@<TRIPOS>BOND
     1    1    2 1    
     2    1   67 1    
     3    1   68 1    
     4    1   69 1    
     5    2    3 2    
     6    2    4 am   BACKBONE|DICT|INTERRES
     7    4    5 1    
     8    4   70 1    
     9    5    6 1    
    10    5   65 1    
    11    5   71 1    
    12    6    7 1    
    13    6   72 1    
    14    6   73 1    
    15    7    8 1    
    16    8    9 1    
    17    8   74 1    
    18    8   75 1    
    19    9   10 ar   
    20    9   14 ar   
    21   10   11 ar   
    22   10   76 1    
    23   11   12 ar   
    24   11   48 1    
    25   12   13 ar   
    26   12   77 1    
    27   13   14 ar   
    28   13   15 1    
    29   14   78 1    
    30   15   16 1    
    31   15   79 1    
    32   15   80 1    
    33   16   17 1    
    34   17   18 1    
    35   17   81 1    
    36   17   82 1    
    37   18   19 1    
    38   18   22 1    
    39   18   83 1    
    40   19   20 am   BACKBONE|DICT|INTERRES
    41   19   21 2    
    42   20   84 1    
    43   20   85 1    
    44   22   23 am   BACKBONE|DICT|INTERRES
    45   22   86 1    
    46   23   24 2    
    47   23   25 1    
    48   25   26 1    
    49   25   27 1    
    50   25   87 1    
    51   26   88 1    
    52   26   89 1    
    53   26   90 1    
    54   27   28 am   BACKBONE|DICT|INTERRES
    55   27   91 1    
    56   28   29 2    
    57   28   30 1    
    58   30   31 1    
    59   30   32 1    
    60   30   92 1    
    61   31   93 1    
    62   31   94 1    
    63   31   95 1    
    64   32   33 am   BACKBONE|DICT|INTERRES
    65   32   96 1    
    66   33   34 2    
    67   33   35 1    
    68   35   36 1    
    69   35   37 1    
    70   35   97 1    
    71   36   98 1    
    72   36   99 1    
    73   36  100 1    
    74   37   38 am   BACKBONE|DICT|INTERRES
    75   37  101 1    
    76   38   39 2    
    77   38   40 1    
    78   40   41 1    
    79   40   42 1    
    80   40  102 1    
    81   41  103 1    
    82   41  104 1    
    83   41  105 1    
    84   42   43 am   BACKBONE|DICT|INTERRES
    85   42  106 1    
    86   43   44 2    
    87   43   45 1    
    88   45   46 1    
    89   45   49 1    
    90   45  107 1    
    91   46   47 1    
    92   46  108 1    
    93   46  109 1    
    94   47   48 1    
    95   48  110 1    
    96   48  111 1    
    97   49   50 am   BACKBONE|DICT|INTERRES
    98   49  112 1    
    99   50   51 2    
   100   50   52 1    
   101   52   53 1    
   102   52   54 1    
   103   52  113 1    
   104   53  114 1    
   105   53  115 1    
   106   53  116 1    
   107   54   55 am   BACKBONE|DICT|INTERRES
   108   54  117 1    
   109   55   56 2    
   110   55   57 1    
   111   57   58 1    
   112   57   59 1    
   113   57  118 1    
   114   58  119 1    
   115   58  120 1    
   116   58  121 1    
   117   59   60 am   BACKBONE|DICT|INTERRES
   118   59  122 1    
   119   60   61 2    
   120   60   62 1    
   121   62   63 1    
   122   62   64 1    
   123   62  123 1    
   124   63  124 1    
   125   63  125 1    
   126   63  126 1    
   127   64   65 am   BACKBONE|DICT|INTERRES
   128   64  127 1    
   129   65   66 2    
@<TRIPOS>SUBSTRUCTURE
     1 UNK         1 GROUP             0       ****    0 ROOT    
