@<TRIPOS>MOLECULE
3R135
127   129    1
SMALL
USER_CHARGES


@<TRIPOS>ATOM
      1 CA        -77.1919   30.5620  -76.7455 C.3       0 UNK        -0.1998 
      2 C         -78.1165   29.4915  -76.1842 C.2       0 UNK         0.4909 
      3 O         -79.2592   29.3788  -76.6265 O.2       0 UNK        -0.5240 
      4 N         -77.6180   28.6910  -75.2320 N.am      1 UNK        -0.4739 
      5 CA        -78.3046   27.6263  -74.4773 C.3       1 UNK         0.0864 
      6 C6        -79.5500   28.0950  -73.6728 C.3       11 UNK        -0.0881 
      7 S7        -79.2617   29.5944  -72.6662 S.3       11 UNK        -0.2682 
      8 C8        -78.7990   28.9047  -71.0391 C.3       11 UNK         0.0289 
      9 C9        -77.4898   28.1203  -71.0563 C.ar      11 UNK        -0.0687 
     10 C10       -77.3975   26.9060  -70.3694 C.ar      11 UNK        -0.0823 
     11 C11       -76.2163   26.1589  -70.4015 C.ar      11 UNK        -0.0830 
     12 C12       -75.1193   26.6355  -71.1264 C.ar      11 UNK        -0.1021 
     13 C13       -75.1960   27.8474  -71.8185 C.ar      11 UNK        -0.0753 
     14 C14       -76.3752   28.5943  -71.7574 C.ar      11 UNK        -0.0933 
     15 C15       -74.0296   28.3083  -72.6825 C.3       11 UNK         0.0166 
     16 S16       -73.0520   29.6358  -71.9078 S.3       11 UNK        -0.2615 
     17 C17       -74.0346   31.1583  -72.1772 C.3       11 UNK        -0.0865 
     18 CA        -74.5263   31.4195  -73.6356 C.3       10 UNK         0.0862 
     19 C         -75.3686   32.7267  -73.7529 C.2       10 UNK         0.5551 
     20 N         -75.3334   33.4349  -74.8752 N.am      10 UNK        -0.7319 
     21 O         -76.0927   33.0867  -72.8286 O.2       10 UNK        -0.5018 
     22 N         -73.4703   31.2683  -74.6546 N.am      10 UNK        -0.4509 
     23 C         -72.3524   31.9997  -74.7672 C.2       10 UNK         0.4899 
     24 O         -72.0588   32.9297  -74.0147 O.2       10 UNK        -0.4839 
     25 CA        -71.4230   31.6381  -75.9461 C.3       9 UNK         0.0222 
     26 CB        -69.9784   32.1477  -75.7534 C.3       9 UNK        -0.1966 
     27 N         -71.4448   30.2066  -76.2829 N.am      9 UNK        -0.4218 
     28 C         -71.0485   29.1784  -75.5181 C.2       9 UNK         0.5020 
     29 O         -70.5298   29.3046  -74.4084 O.2       9 UNK        -0.5274 
     30 CA        -71.2981   27.7700  -76.0950 C.3       8 UNK         0.0270 
     31 CB        -70.8308   26.6470  -75.1492 C.3       8 UNK        -0.1976 
     32 N         -72.7085   27.5435  -76.4247 N.am      8 UNK        -0.4313 
     33 C         -73.3544   27.9998  -77.5043 C.2       8 UNK         0.5041 
     34 O         -72.8278   28.7439  -78.3338 O.2       8 UNK        -0.5577 
     35 CA        -74.8257   27.5628  -77.6732 C.3       7 UNK         0.0284 
     36 CB        -75.4069   27.9439  -79.0469 C.3       7 UNK        -0.1958 
     37 N         -75.0223   26.1253  -77.4497 N.am      7 UNK        -0.4454 
     38 C         -75.0806   25.5419  -76.2478 C.2       7 UNK         0.5089 
     39 O         -74.9628   26.1652  -75.1879 O.2       7 UNK        -0.5125 
     40 CA        -75.2513   24.0190  -76.2203 C.3       6 UNK         0.0408 
     41 CB        -73.9082   23.3064  -76.4547 C.3       6 UNK        -0.1791 
     42 N         -75.7776   23.6720  -74.9085 N.am      6 UNK        -0.4762 
     43 C         -76.5200   22.6061  -74.5922 C.2       6 UNK         0.5007 
     44 O         -76.7713   21.6932  -75.3811 O.2       6 UNK        -0.5032 
     45 CA        -77.1236   22.5723  -73.1750 C.3       5 UNK         0.0783 
     46 C46       -76.4602   23.5854  -72.2001 C.3       11 UNK        -0.0857 
     47 S47       -77.1347   23.5316  -70.5072 S.3       11 UNK        -0.2512 
     48 C48       -76.1357   24.8172  -69.6843 C.3       11 UNK         0.0225 
     49 N         -78.5468   22.8379  -73.3523 N.am      5 UNK        -0.4615 
     50 C         -79.5545   22.1217  -72.8471 C.2       4 UNK         0.5053 
     51 O         -79.4126   21.1306  -72.1299 O.2       4 UNK        -0.5105 
     52 CA        -80.9677   22.5905  -73.2295 C.3       4 UNK         0.0263 
     53 CB        -81.3172   23.9140  -72.5270 C.3       4 UNK        -0.1981 
     54 N         -81.1123   22.7510  -74.6775 N.am      4 UNK        -0.4224 
     55 C         -81.1261   21.7494  -75.5667 C.2       3 UNK         0.4895 
     56 O         -81.1082   20.5590  -75.2516 O.2       3 UNK        -0.5091 
     57 CA        -81.1501   22.1194  -77.0629 C.3       3 UNK         0.0250 
     58 CB        -82.5924   22.3323  -77.5644 C.3       3 UNK        -0.1996 
     59 N         -80.2680   23.2397  -77.4289 N.am      3 UNK        -0.4254 
     60 C         -80.3772   24.5335  -77.0966 C.2       2 UNK         0.5004 
     61 O         -81.3149   25.0044  -76.4479 O.2       2 UNK        -0.5226 
     62 CA        -79.2253   25.4473  -77.5517 C.3       2 UNK         0.0269 
     63 CB        -79.5420   26.0697  -78.9204 C.3       2 UNK        -0.1926 
     64 N         -78.9334   26.5207  -76.5977 N.am      2 UNK        -0.4687 
     65 C         -78.6219   26.3644  -75.3044 C.2       1 UNK         0.5165 
     66 O         -78.5481   25.2652  -74.7561 O.2       1 UNK        -0.5079 
     67 H67       -77.5847   31.5517  -76.5135 H         1 UNK         0.0900 
     68 H68       -77.1238   30.4688  -77.8290 H         1 UNK         0.0900 
     69 H69       -76.1852   30.4942  -76.3357 H         1 UNK         0.0900 
     70 H70       -76.6575   28.8191  -74.9536 H         1 UNK         0.2959 
     71 H71       -77.5658   27.2817  -73.7547 H         1 UNK         0.1079 
     72 H72       -79.9022   27.2950  -73.0186 H         1 UNK         0.0837 
     73 H73       -80.3770   28.3104  -74.3519 H         1 UNK         0.0837 
     74 H74       -78.6996   29.7263  -70.3287 H         1 UNK         0.0685 
     75 H75       -79.6195   28.2820  -70.6791 H         1 UNK         0.0685 
     76 H76       -78.2509   26.5271  -69.8234 H         1 UNK         0.1434 
     77 H77       -74.2119   26.0490  -71.1740 H         1 UNK         0.1329 
     78 H78       -76.4474   29.5293  -72.2912 H         1 UNK         0.1335 
     79 H79       -73.3575   27.4687  -72.8648 H         1 UNK         0.0680 
     80 H80       -74.3820   28.6037  -73.6693 H         1 UNK         0.0680 
     81 H81       -73.4233   31.9981  -71.8428 H         1 UNK         0.1032 
     82 H82       -74.8813   31.1295  -71.4897 H         1 UNK         0.1032 
     83 H83       -75.2518   30.6455  -73.8769 H         1 UNK         0.0461 
     84 H84       -75.8883   34.2732  -74.9455 H         1 UNK         0.3453 
     85 H85       -74.7405   33.1569  -75.6397 H         1 UNK         0.3453 
     86 H86       -73.6136   30.5362  -75.3318 H         1 UNK         0.2984 
     87 H87       -71.8336   32.1528  -76.8158 H         1 UNK         0.0554 
     88 H88       -69.3471   31.8848  -76.6020 H         1 UNK         0.0847 
     89 H89       -69.5198   31.7375  -74.8532 H         1 UNK         0.0847 
     90 H90       -69.9563   33.2342  -75.6599 H         1 UNK         0.0847 
     91 H91       -71.8674   29.9610  -77.1767 H         1 UNK         0.3141 
     92 H92       -70.7115   27.6936  -77.0131 H         1 UNK         0.0743 
     93 H93       -71.3745   26.6625  -74.2038 H         1 UNK         0.0784 
     94 H94       -70.9699   25.6642  -75.6001 H         1 UNK         0.0784 
     95 H95       -69.7697   26.7472  -74.9171 H         1 UNK         0.0784 
     96 H96       -73.2475   26.9838  -75.7708 H         1 UNK         0.3213 
     97 H97       -75.3942   28.1072  -76.9189 H         1 UNK         0.0855 
     98 H98       -74.8828   27.4407  -79.8602 H         1 UNK         0.0814 
     99 H99       -75.3278   29.0175  -79.2238 H         1 UNK         0.0814 
    100 H100      -76.4635   27.6863  -79.1154 H         1 UNK         0.0814 
    101 H101      -75.0736   25.5455  -78.2756 H         1 UNK         0.3105 
    102 H102      -75.9699   23.7313  -76.9903 H         1 UNK         0.0547 
    103 H103      -73.1689   23.5834  -75.7020 H         1 UNK         0.0837 
    104 H104      -74.0240   22.2229  -76.4255 H         1 UNK         0.0837 
    105 H105      -73.4920   23.5596  -77.4305 H         1 UNK         0.0837 
    106 H106      -75.6675   24.4199  -74.2335 H         1 UNK         0.3020 
    107 H107      -76.9712   21.5613  -72.7906 H         1 UNK         0.1245 
    108 H108      -75.3843   23.4107  -72.1379 H         1 UNK         0.0781 
    109 H109      -76.5981   24.6024  -72.5717 H         1 UNK         0.0781 
    110 H110      -75.1016   24.4754  -69.6179 H         1 UNK         0.0836 
    111 H111      -76.4839   24.9341  -68.6571 H         1 UNK         0.0836 
    112 H112      -78.7519   23.6453  -73.9383 H         1 UNK         0.3022 
    113 H113      -81.6771   21.8296  -72.8970 H         1 UNK         0.0747 
    114 H114      -82.3483   24.2068  -72.7253 H         1 UNK         0.0793 
    115 H115      -81.2079   23.8216  -71.4455 H         1 UNK         0.0793 
    116 H116      -80.6699   24.7300  -72.8512 H         1 UNK         0.0793 
    117 H117      -81.1539   23.6983  -75.0443 H         1 UNK         0.3047 
    118 H118      -80.7503   21.2552  -77.5963 H         1 UNK         0.0822 
    119 H119      -82.6142   22.5376  -78.6346 H         1 UNK         0.0807 
    120 H120      -83.0885   23.1581  -77.0538 H         1 UNK         0.0807 
    121 H121      -83.1967   21.4404  -77.3932 H         1 UNK         0.0807 
    122 H122      -79.4478   22.9628  -77.9510 H         1 UNK         0.2946 
    123 H123      -78.3197   24.8437  -77.6398 H         1 UNK         0.1144 
    124 H124      -80.4220   26.7128  -78.8734 H         1 UNK         0.0793 
    125 H125      -79.7402   25.2995  -79.6671 H         1 UNK         0.0793 
    126 H126      -78.7094   26.6688  -79.2885 H         1 UNK         0.0793 
    127 H127      -79.0465   27.4756  -76.9239 H         1 UNK         0.2896 
@<TRIPOS>BOND
     1    1    2 1    
     2    1   67 1    
     3    1   68 1    
     4    1   69 1    
     5    2    3 2    
     6    2    4 am   BACKBONE|DICT|INTERRES
     7    4    5 1    
     8    4   70 1    
     9    5    6 1    
    10    5   65 1    
    11    5   71 1    
    12    6    7 1    
    13    6   72 1    
    14    6   73 1    
    15    7    8 1    
    16    8    9 1    
    17    8   74 1    
    18    8   75 1    
    19    9   10 ar   
    20    9   14 ar   
    21   10   11 ar   
    22   10   76 1    
    23   11   12 ar   
    24   11   48 1    
    25   12   13 ar   
    26   12   77 1    
    27   13   14 ar   
    28   13   15 1    
    29   14   78 1    
    30   15   16 1    
    31   15   79 1    
    32   15   80 1    
    33   16   17 1    
    34   17   18 1    
    35   17   81 1    
    36   17   82 1    
    37   18   19 1    
    38   18   22 1    
    39   18   83 1    
    40   19   20 am   BACKBONE|DICT|INTERRES
    41   19   21 2    
    42   20   84 1    
    43   20   85 1    
    44   22   23 am   BACKBONE|DICT|INTERRES
    45   22   86 1    
    46   23   24 2    
    47   23   25 1    
    48   25   26 1    
    49   25   27 1    
    50   25   87 1    
    51   26   88 1    
    52   26   89 1    
    53   26   90 1    
    54   27   28 am   BACKBONE|DICT|INTERRES
    55   27   91 1    
    56   28   29 2    
    57   28   30 1    
    58   30   31 1    
    59   30   32 1    
    60   30   92 1    
    61   31   93 1    
    62   31   94 1    
    63   31   95 1    
    64   32   33 am   BACKBONE|DICT|INTERRES
    65   32   96 1    
    66   33   34 2    
    67   33   35 1    
    68   35   36 1    
    69   35   37 1    
    70   35   97 1    
    71   36   98 1    
    72   36   99 1    
    73   36  100 1    
    74   37   38 am   BACKBONE|DICT|INTERRES
    75   37  101 1    
    76   38   39 2    
    77   38   40 1    
    78   40   41 1    
    79   40   42 1    
    80   40  102 1    
    81   41  103 1    
    82   41  104 1    
    83   41  105 1    
    84   42   43 am   BACKBONE|DICT|INTERRES
    85   42  106 1    
    86   43   44 2    
    87   43   45 1    
    88   45   46 1    
    89   45   49 1    
    90   45  107 1    
    91   46   47 1    
    92   46  108 1    
    93   46  109 1    
    94   47   48 1    
    95   48  110 1    
    96   48  111 1    
    97   49   50 am   BACKBONE|DICT|INTERRES
    98   49  112 1    
    99   50   51 2    
   100   50   52 1    
   101   52   53 1    
   102   52   54 1    
   103   52  113 1    
   104   53  114 1    
   105   53  115 1    
   106   53  116 1    
   107   54   55 am   BACKBONE|DICT|INTERRES
   108   54  117 1    
   109   55   56 2    
   110   55   57 1    
   111   57   58 1    
   112   57   59 1    
   113   57  118 1    
   114   58  119 1    
   115   58  120 1    
   116   58  121 1    
   117   59   60 am   BACKBONE|DICT|INTERRES
   118   59  122 1    
   119   60   61 2    
   120   60   62 1    
   121   62   63 1    
   122   62   64 1    
   123   62  123 1    
   124   63  124 1    
   125   63  125 1    
   126   63  126 1    
   127   64   65 am   BACKBONE|DICT|INTERRES
   128   64  127 1    
   129   65   66 2    
@<TRIPOS>SUBSTRUCTURE
     1 UNK         1 GROUP             0       ****    0 ROOT    
