@<TRIPOS>MOLECULE
3R135
127   129    1
SMALL
USER_CHARGES


@<TRIPOS>ATOM
      1 CA        -85.5982   29.7751  -71.0110 C.3       0 UNK        -0.1998 
      2 C         -85.0842   29.3954  -72.3918 C.2       0 UNK         0.4909 
      3 O         -85.5200   29.9742  -73.3879 O.2       0 UNK        -0.5240 
      4 N         -84.1666   28.4264  -72.4582 N.am      1 UNK        -0.4739 
      5 CA        -83.5705   27.9064  -73.6897 C.3       1 UNK         0.0864 
      6 C6        -82.5149   28.8664  -74.3152 C.3       11 UNK        -0.0881 
      7 S7        -81.0663   29.2115  -73.2533 S.3       11 UNK        -0.2682 
      8 C8        -79.7113   28.7462  -74.3786 C.3       11 UNK         0.0289 
      9 C9        -78.3561   28.6807  -73.6892 C.ar      11 UNK        -0.0687 
     10 C10       -78.1802   27.8795  -72.5580 C.ar      11 UNK        -0.0823 
     11 C11       -76.9155   27.7224  -71.9854 C.ar      11 UNK        -0.0830 
     12 C12       -75.8183   28.3749  -72.5528 C.ar      11 UNK        -0.1021 
     13 C13       -75.9792   29.1816  -73.6831 C.ar      11 UNK        -0.0753 
     14 C14       -77.2542   29.3464  -74.2349 C.ar      11 UNK        -0.0933 
     15 C15       -74.7684   29.7992  -74.3666 C.3       11 UNK         0.0166 
     16 S16       -74.3242   31.4218  -73.6743 S.3       11 UNK        -0.2615 
     17 C17       -73.1920   30.9462  -72.3227 C.3       11 UNK        -0.0865 
     18 CA        -71.7037   31.2719  -72.6225 C.3       10 UNK         0.0862 
     19 C         -70.8282   30.9749  -71.3679 C.2       10 UNK         0.5551 
     20 N         -69.9264   30.0011  -71.3982 N.am      10 UNK        -0.7319 
     21 O         -70.9737   31.6440  -70.3478 O.2       10 UNK        -0.5018 
     22 N         -71.2366   30.6460  -73.8752 N.am      10 UNK        -0.4509 
     23 C         -70.1048   30.9607  -74.5197 C.2       10 UNK         0.4899 
     24 O         -69.3310   31.8404  -74.1384 O.2       10 UNK        -0.4839 
     25 CA        -69.7748   30.1486  -75.7904 C.3       9 UNK         0.0222 
     26 CB        -68.3318   30.3783  -76.2797 C.3       9 UNK        -0.1966 
     27 N         -69.9852   28.7094  -75.5950 N.am      9 UNK        -0.4218 
     28 C         -71.1476   28.0728  -75.7797 C.2       9 UNK         0.5020 
     29 O         -72.1832   28.6411  -76.1291 O.2       9 UNK        -0.5274 
     30 CA        -71.1672   26.5739  -75.4412 C.3       8 UNK         0.0270 
     31 CB        -71.4056   26.3773  -73.9341 C.3       8 UNK        -0.1976 
     32 N         -72.2162   25.8761  -76.1875 N.am      8 UNK        -0.4313 
     33 C         -72.1164   25.5143  -77.4761 C.2       8 UNK         0.5041 
     34 O         -71.0886   25.6555  -78.1414 O.2       8 UNK        -0.5577 
     35 CA        -73.3507   24.8764  -78.1479 C.3       7 UNK         0.0284 
     36 CB        -73.2134   23.3458  -78.1842 C.3       7 UNK        -0.1958 
     37 N         -74.6112   25.2240  -77.4924 N.am      7 UNK        -0.4454 
     38 C         -75.1670   26.4427  -77.4987 C.2       7 UNK         0.5089 
     39 O         -74.7674   27.3658  -78.2088 O.2       7 UNK        -0.5125 
     40 CA        -76.3547   26.6921  -76.5472 C.3       6 UNK         0.0408 
     41 CB        -77.6451   26.9321  -77.3459 C.3       6 UNK        -0.1791 
     42 N         -76.5970   25.6474  -75.5426 N.am      6 UNK        -0.4762 
     43 C         -75.7360   25.2380  -74.5969 C.2       6 UNK         0.5007 
     44 O         -74.5951   25.6849  -74.4803 O.2       6 UNK        -0.5032 
     45 CA        -76.1858   24.0641  -73.7016 C.3       5 UNK         0.0783 
     46 C46       -76.9421   24.5198  -72.4319 C.3       11 UNK        -0.0857 
     47 S47       -75.8441   25.2803  -71.1875 S.3       11 UNK        -0.2512 
     48 C48       -76.7308   26.8187  -70.7751 C.3       11 UNK         0.0225 
     49 N         -76.9827   23.1039  -74.4680 N.am      5 UNK        -0.4615 
     50 C         -76.4737   22.1909  -75.3050 C.2       4 UNK         0.5053 
     51 O         -75.2679   22.0337  -75.4930 O.2       4 UNK        -0.5105 
     52 CA        -77.4791   21.3102  -76.0669 C.3       4 UNK         0.0263 
     53 CB        -77.8275   20.0583  -75.2459 C.3       4 UNK        -0.1981 
     54 N         -78.7107   22.0251  -76.4130 N.am      4 UNK        -0.4224 
     55 C         -78.7860   22.9863  -77.3444 C.2       3 UNK         0.4895 
     56 O         -77.8390   23.3285  -78.0525 O.2       3 UNK        -0.5091 
     57 CA        -80.1398   23.7035  -77.5015 C.3       3 UNK         0.0250 
     58 CB        -81.0047   22.9892  -78.5525 C.3       3 UNK        -0.1996 
     59 N         -80.9074   23.8520  -76.2570 N.am      3 UNK        -0.4254 
     60 C         -80.4823   24.5037  -75.1661 C.2       2 UNK         0.5004 
     61 O         -79.3605   25.0006  -75.0590 O.2       2 UNK        -0.5226 
     62 CA        -81.4803   24.6600  -74.0164 C.3       2 UNK         0.0269 
     63 CB        -80.8054   24.4302  -72.6479 C.3       2 UNK        -0.1926 
     64 N         -82.0406   26.0071  -74.1029 N.am      2 UNK        -0.4687 
     65 C         -83.1189   26.4492  -73.4456 C.2       1 UNK         0.5165 
     66 O         -83.7700   25.7420  -72.6716 O.2       1 UNK        -0.5079 
     67 H67       -85.1273   29.1855  -70.2245 H         1 UNK         0.0900 
     68 H68       -86.6750   29.6176  -70.9547 H         1 UNK         0.0900 
     69 H69       -85.3963   30.8273  -70.8123 H         1 UNK         0.0900 
     70 H70       -83.8777   27.9414  -71.6188 H         1 UNK         0.2959 
     71 H71       -84.3791   27.8112  -74.4182 H         1 UNK         0.1079 
     72 H72       -82.1928   28.4935  -75.2886 H         1 UNK         0.0837 
     73 H73       -82.9873   29.8252  -74.5338 H         1 UNK         0.0837 
     74 H74       -79.9131   27.7646  -74.8062 H         1 UNK         0.0685 
     75 H75       -79.6901   29.4510  -75.2113 H         1 UNK         0.0685 
     76 H76       -79.0293   27.3557  -72.1419 H         1 UNK         0.1434 
     77 H77       -74.8350   28.2154  -72.1346 H         1 UNK         0.1329 
     78 H78       -77.3761   29.9490  -75.1244 H         1 UNK         0.1335 
     79 H79       -73.9227   29.1159  -74.2933 H         1 UNK         0.0680 
     80 H80       -74.9631   29.9169  -75.4338 H         1 UNK         0.0680 
     81 H81       -73.3044   29.8872  -72.0914 H         1 UNK         0.1032 
     82 H82       -73.5221   31.4790  -71.4287 H         1 UNK         0.1032 
     83 H83       -71.6374   32.3509  -72.7756 H         1 UNK         0.0461 
     84 H84       -69.7927   29.4561  -72.2335 H         1 UNK         0.3453 
     85 H85       -69.3651   29.8217  -70.5806 H         1 UNK         0.3453 
     86 H86       -71.8372   29.9433  -74.2844 H         1 UNK         0.2984 
     87 H87       -70.4446   30.5064  -76.5753 H         1 UNK         0.0554 
     88 H88       -68.1284   29.8189  -77.1930 H         1 UNK         0.0847 
     89 H89       -67.5975   30.0785  -75.5310 H         1 UNK         0.0847 
     90 H90       -68.1567   31.4313  -76.5049 H         1 UNK         0.0847 
     91 H91       -69.1896   28.1806  -75.2655 H         1 UNK         0.3141 
     92 H92       -70.2007   26.1377  -75.7029 H         1 UNK         0.0743 
     93 H93       -72.3332   26.8494  -73.6066 H         1 UNK         0.0784 
     94 H94       -71.4615   25.3197  -73.6753 H         1 UNK         0.0784 
     95 H95       -70.5957   26.8115  -73.3468 H         1 UNK         0.0784 
     96 H96       -73.1103   25.7778  -75.7122 H         1 UNK         0.3213 
     97 H97       -73.3909   25.2426  -79.1760 H         1 UNK         0.0855 
     98 H98       -73.1663   22.9214  -77.1803 H         1 UNK         0.0814 
     99 H99       -72.3034   23.0482  -78.7070 H         1 UNK         0.0814 
    100 H100      -74.0523   22.8831  -78.7047 H         1 UNK         0.0814 
    101 H101      -75.0255   24.5226  -76.8949 H         1 UNK         0.3105 
    102 H102      -76.1174   27.6050  -76.0041 H         1 UNK         0.0547 
    103 H103      -77.5331   27.7793  -78.0237 H         1 UNK         0.0837 
    104 H104      -77.9061   26.0647  -77.9513 H         1 UNK         0.0837 
    105 H105      -78.4865   27.1522  -76.6904 H         1 UNK         0.0837 
    106 H106      -77.5370   25.2592  -75.5226 H         1 UNK         0.3020 
    107 H107      -75.2767   23.5511  -73.3775 H         1 UNK         0.1245 
    108 H108      -77.4083   23.6590  -71.9499 H         1 UNK         0.0781 
    109 H109      -77.7614   25.1870  -72.6953 H         1 UNK         0.0781 
    110 H110      -76.1700   27.3554  -70.0085 H         1 UNK         0.0836 
    111 H111      -77.6933   26.5661  -70.3274 H         1 UNK         0.0836 
    112 H112      -77.9851   23.2187  -74.4229 H         1 UNK         0.3022 
    113 H113      -76.9992   20.9871  -76.9935 H         1 UNK         0.0747 
    114 H114      -78.4812   19.3873  -75.8035 H         1 UNK         0.0793 
    115 H115      -76.9275   19.4953  -74.9940 H         1 UNK         0.0793 
    116 H116      -78.3255   20.3122  -74.3092 H         1 UNK         0.0793 
    117 H117      -79.5431   21.7936  -75.8907 H         1 UNK         0.3047 
    118 H118      -79.9278   24.7095  -77.8686 H         1 UNK         0.0822 
    119 H119      -81.9174   23.5473  -78.7626 H         1 UNK         0.0807 
    120 H120      -81.2894   21.9870  -78.2295 H         1 UNK         0.0807 
    121 H121      -80.4671   22.8867  -79.4965 H         1 UNK         0.0807 
    122 H122      -81.8487   23.4853  -76.2672 H         1 UNK         0.2946 
    123 H123      -82.2811   23.9270  -74.1384 H         1 UNK         0.1144 
    124 H124      -81.5384   24.3955  -71.8422 H         1 UNK         0.0793 
    125 H125      -80.0952   25.2218  -72.4128 H         1 UNK         0.0793 
    126 H126      -80.2637   23.4838  -72.6289 H         1 UNK         0.0793 
    127 H127      -81.5484   26.6369  -74.7203 H         1 UNK         0.2896 
@<TRIPOS>BOND
     1    1    2 1    
     2    1   67 1    
     3    1   68 1    
     4    1   69 1    
     5    2    3 2    
     6    2    4 am   BACKBONE|DICT|INTERRES
     7    4    5 1    
     8    4   70 1    
     9    5    6 1    
    10    5   65 1    
    11    5   71 1    
    12    6    7 1    
    13    6   72 1    
    14    6   73 1    
    15    7    8 1    
    16    8    9 1    
    17    8   74 1    
    18    8   75 1    
    19    9   10 ar   
    20    9   14 ar   
    21   10   11 ar   
    22   10   76 1    
    23   11   12 ar   
    24   11   48 1    
    25   12   13 ar   
    26   12   77 1    
    27   13   14 ar   
    28   13   15 1    
    29   14   78 1    
    30   15   16 1    
    31   15   79 1    
    32   15   80 1    
    33   16   17 1    
    34   17   18 1    
    35   17   81 1    
    36   17   82 1    
    37   18   19 1    
    38   18   22 1    
    39   18   83 1    
    40   19   20 am   BACKBONE|DICT|INTERRES
    41   19   21 2    
    42   20   84 1    
    43   20   85 1    
    44   22   23 am   BACKBONE|DICT|INTERRES
    45   22   86 1    
    46   23   24 2    
    47   23   25 1    
    48   25   26 1    
    49   25   27 1    
    50   25   87 1    
    51   26   88 1    
    52   26   89 1    
    53   26   90 1    
    54   27   28 am   BACKBONE|DICT|INTERRES
    55   27   91 1    
    56   28   29 2    
    57   28   30 1    
    58   30   31 1    
    59   30   32 1    
    60   30   92 1    
    61   31   93 1    
    62   31   94 1    
    63   31   95 1    
    64   32   33 am   BACKBONE|DICT|INTERRES
    65   32   96 1    
    66   33   34 2    
    67   33   35 1    
    68   35   36 1    
    69   35   37 1    
    70   35   97 1    
    71   36   98 1    
    72   36   99 1    
    73   36  100 1    
    74   37   38 am   BACKBONE|DICT|INTERRES
    75   37  101 1    
    76   38   39 2    
    77   38   40 1    
    78   40   41 1    
    79   40   42 1    
    80   40  102 1    
    81   41  103 1    
    82   41  104 1    
    83   41  105 1    
    84   42   43 am   BACKBONE|DICT|INTERRES
    85   42  106 1    
    86   43   44 2    
    87   43   45 1    
    88   45   46 1    
    89   45   49 1    
    90   45  107 1    
    91   46   47 1    
    92   46  108 1    
    93   46  109 1    
    94   47   48 1    
    95   48  110 1    
    96   48  111 1    
    97   49   50 am   BACKBONE|DICT|INTERRES
    98   49  112 1    
    99   50   51 2    
   100   50   52 1    
   101   52   53 1    
   102   52   54 1    
   103   52  113 1    
   104   53  114 1    
   105   53  115 1    
   106   53  116 1    
   107   54   55 am   BACKBONE|DICT|INTERRES
   108   54  117 1    
   109   55   56 2    
   110   55   57 1    
   111   57   58 1    
   112   57   59 1    
   113   57  118 1    
   114   58  119 1    
   115   58  120 1    
   116   58  121 1    
   117   59   60 am   BACKBONE|DICT|INTERRES
   118   59  122 1    
   119   60   61 2    
   120   60   62 1    
   121   62   63 1    
   122   62   64 1    
   123   62  123 1    
   124   63  124 1    
   125   63  125 1    
   126   63  126 1    
   127   64   65 am   BACKBONE|DICT|INTERRES
   128   64  127 1    
   129   65   66 2    
@<TRIPOS>SUBSTRUCTURE
     1 UNK         1 GROUP             0       ****    0 ROOT    
