@<TRIPOS>MOLECULE
3R135
127   129    1
SMALL
USER_CHARGES


@<TRIPOS>ATOM
      1 CA        -84.5757   29.8620  -76.7603 C.3       0 UNK        -0.1998 
      2 C         -83.7527   28.9050  -75.9105 C.2       0 UNK         0.4909 
      3 O         -84.3207   28.1807  -75.0933 O.2       0 UNK        -0.5240 
      4 N         -82.4258   28.9080  -76.1044 N.am      1 UNK        -0.4739 
      5 CA        -81.4251   28.0740  -75.4229 C.3       1 UNK         0.0864 
      6 C6        -81.2712   28.3798  -73.9082 C.3       11 UNK        -0.0881 
      7 S7        -80.6708   30.0718  -73.6043 S.3       11 UNK        -0.2682 
      8 C8        -80.4584   30.0344  -71.7978 C.3       11 UNK         0.0289 
      9 C9        -79.0925   29.5042  -71.3787 C.ar      11 UNK        -0.0687 
     10 C10       -78.9282   28.1704  -70.9892 C.ar      11 UNK        -0.0823 
     11 C11       -77.6909   27.7142  -70.5184 C.ar      11 UNK        -0.0830 
     12 C12       -76.6126   28.6015  -70.4458 C.ar      11 UNK        -0.1021 
     13 C13       -76.7613   29.9327  -70.8456 C.ar      11 UNK        -0.0753 
     14 C14       -78.0008   30.3750  -71.3173 C.ar      11 UNK        -0.0933 
     15 C15       -75.6021   30.9109  -70.7242 C.3       11 UNK         0.0166 
     16 S16       -74.5045   30.8431  -72.1717 S.3       11 UNK        -0.2615 
     17 C17       -73.4103   29.4485  -71.7317 C.3       11 UNK        -0.0865 
     18 CA        -72.0821   29.4686  -72.5356 C.3       10 UNK         0.0862 
     19 C         -71.0710   28.3952  -72.0349 C.2       10 UNK         0.5551 
     20 N         -70.3579   27.6888  -72.9057 N.am      10 UNK        -0.7319 
     21 O         -70.9131   28.2093  -70.8307 O.2       10 UNK        -0.5018 
     22 N         -72.3370   29.3716  -73.9791 N.am      10 UNK        -0.4509 
     23 C         -71.8204   30.1701  -74.9185 C.2       10 UNK         0.4899 
     24 O         -71.0897   31.1329  -74.6779 O.2       10 UNK        -0.4839 
     25 CA        -72.1820   29.8223  -76.3760 C.3       9 UNK         0.0222 
     26 CB        -71.2785   30.5318  -77.4071 C.3       9 UNK        -0.1966 
     27 N         -72.2270   28.3769  -76.6346 N.am      9 UNK        -0.4218 
     28 C         -71.2272   27.4923  -76.4842 C.2       9 UNK         0.5020 
     29 O         -70.1107   27.8017  -76.0642 O.2       9 UNK        -0.5274 
     30 CA        -71.5003   26.0113  -76.8228 C.3       8 UNK         0.0270 
     31 CB        -71.0326   25.0937  -75.6786 C.3       8 UNK        -0.1976 
     32 N         -72.9062   25.7208  -77.1142 N.am      8 UNK        -0.4313 
     33 C         -73.5270   25.9471  -78.2795 C.2       8 UNK         0.5041 
     34 O         -72.9575   26.3616  -79.2892 O.2       8 UNK        -0.5577 
     35 CA        -75.0529   25.7337  -78.3033 C.3       7 UNK         0.0284 
     36 CB        -75.3934   24.2716  -78.6275 C.3       7 UNK        -0.1958 
     37 N         -75.7048   26.1326  -77.0494 N.am      7 UNK        -0.4454 
     38 C         -75.7038   27.3831  -76.5620 C.2       7 UNK         0.5089 
     39 O         -75.1959   28.3414  -77.1435 O.2       7 UNK        -0.5125 
     40 CA        -76.3173   27.5954  -75.1703 C.3       6 UNK         0.0408 
     41 CB        -77.8331   27.7978  -75.2581 C.3       6 UNK        -0.1791 
     42 N         -76.0263   26.4884  -74.2637 N.am      6 UNK        -0.4762 
     43 C         -74.8185   26.2348  -73.7468 C.2       6 UNK         0.5007 
     44 O         -73.8167   26.9096  -73.9862 O.2       6 UNK        -0.5032 
     45 CA        -74.7054   24.9852  -72.8526 C.3       5 UNK         0.0783 
     46 C46       -75.3047   25.2237  -71.4407 C.3       11 UNK        -0.0857 
     47 S47       -77.1330   25.1305  -71.3799 S.3       11 UNK        -0.2512 
     48 C48       -77.5403   26.2799  -70.0305 C.3       11 UNK         0.0225 
     49 N         -75.2658   23.7921  -73.4958 N.am      5 UNK        -0.4615 
     50 C         -74.8587   23.2714  -74.6600 C.2       4 UNK         0.5053 
     51 O         -73.9085   23.7039  -75.3080 O.2       4 UNK        -0.5105 
     52 CA        -75.6689   22.0897  -75.2190 C.3       4 UNK         0.0263 
     53 CB        -75.1012   20.7607  -74.6964 C.3       4 UNK        -0.1981 
     54 N         -77.1075   22.1499  -74.9386 N.am      4 UNK        -0.4224 
     55 C         -77.9320   23.1548  -75.2682 C.2       3 UNK         0.4895 
     56 O         -77.5644   24.2089  -75.7957 O.2       3 UNK        -0.5091 
     57 CA        -79.4073   22.9453  -74.8868 C.3       3 UNK         0.0250 
     58 CB        -79.6185   23.2184  -73.3885 C.3       3 UNK        -0.1996 
     59 N         -80.3205   23.8032  -75.6383 N.am      3 UNK        -0.4254 
     60 C         -80.5769   23.7514  -76.9493 C.2       2 UNK         0.5004 
     61 O         -80.0911   22.9104  -77.7069 O.2       2 UNK        -0.5226 
     62 CA        -81.5503   24.8051  -77.5219 C.3       2 UNK         0.0269 
     63 CB        -83.0043   24.2976  -77.4555 C.3       2 UNK        -0.1926 
     64 N         -81.4382   26.1624  -76.9528 N.am      2 UNK        -0.4687 
     65 C         -81.6599   26.5742  -75.6940 C.2       1 UNK         0.5165 
     66 O         -82.0140   25.8278  -74.7791 O.2       1 UNK        -0.5079 
     67 H67       -83.9534   30.4476  -77.4367 H         1 UNK         0.0900 
     68 H68       -85.2970   29.3064  -77.3590 H         1 UNK         0.0900 
     69 H69       -85.1240   30.5535  -76.1211 H         1 UNK         0.0900 
     70 H70       -82.0460   29.5408  -76.7950 H         1 UNK         0.2959 
     71 H71       -80.4746   28.3162  -75.8968 H         1 UNK         0.1079 
     72 H72       -82.2170   28.2365  -73.3830 H         1 UNK         0.0837 
     73 H73       -80.5609   27.6884  -73.4511 H         1 UNK         0.0837 
     74 H74       -81.2561   29.4456  -71.3421 H         1 UNK         0.0685 
     75 H75       -80.5828   31.0488  -71.4159 H         1 UNK         0.0685 
     76 H76       -79.7704   27.4929  -71.0249 H         1 UNK         0.1434 
     77 H77       -75.6616   28.2629  -70.0598 H         1 UNK         0.1329 
     78 H78       -78.1249   31.4079  -71.6131 H         1 UNK         0.1335 
     79 H79       -75.9848   31.9284  -70.6311 H         1 UNK         0.0680 
     80 H80       -75.0381   30.7207  -69.8100 H         1 UNK         0.0680 
     81 H81       -73.2021   29.5003  -70.6616 H         1 UNK         0.1032 
     82 H82       -73.9476   28.5143  -71.8938 H         1 UNK         0.1032 
     83 H83       -71.5986   30.4230  -72.3209 H         1 UNK         0.0461 
     84 H84       -70.4397   27.8569  -73.8999 H         1 UNK         0.3453 
     85 H85       -69.7019   27.0055  -72.5634 H         1 UNK         0.3453 
     86 H86       -72.8959   28.5682  -74.2544 H         1 UNK         0.2984 
     87 H87       -73.1988   30.1871  -76.5265 H         1 UNK         0.0554 
     88 H88       -71.5731   30.2869  -78.4275 H         1 UNK         0.0847 
     89 H89       -70.2306   30.2559  -77.2847 H         1 UNK         0.0847 
     90 H90       -71.3431   31.6157  -77.3044 H         1 UNK         0.0847 
     91 H91       -73.1276   28.0315  -76.9473 H         1 UNK         0.3141 
     92 H92       -70.9070   25.7742  -77.7081 H         1 UNK         0.0743 
     93 H93       -71.5703   25.3027  -74.7527 H         1 UNK         0.0784 
     94 H94       -71.1870   24.0430  -75.9249 H         1 UNK         0.0784 
     95 H95       -69.9687   25.2220  -75.4753 H         1 UNK         0.0784 
     96 H96       -73.4387   25.3007  -76.3565 H         1 UNK         0.3213 
     97 H97       -75.4633   26.3620  -79.0968 H         1 UNK         0.0855 
     98 H98       -74.9275   23.5864  -77.9209 H         1 UNK         0.0814 
     99 H99       -75.0341   24.0025  -79.6215 H         1 UNK         0.0814 
    100 H100      -76.4695   24.0960  -78.6106 H         1 UNK         0.0814 
    101 H101      -76.1919   25.4102  -76.5242 H         1 UNK         0.3105 
    102 H102      -75.8808   28.5032  -74.7470 H         1 UNK         0.0547 
    103 H103      -78.0719   28.6327  -75.9181 H         1 UNK         0.0837 
    104 H104      -78.3380   26.9113  -75.6441 H         1 UNK         0.0837 
    105 H105      -78.2507   28.0292  -74.2781 H         1 UNK         0.0837 
    106 H106      -76.7835   25.8534  -74.0512 H         1 UNK         0.3020 
    107 H107      -73.6354   24.8020  -72.7286 H         1 UNK         0.1245 
    108 H108      -74.9648   26.1779  -71.0355 H         1 UNK         0.0781 
    109 H109      -74.9208   24.4653  -70.7567 H         1 UNK         0.0781 
    110 H110      -76.7845   26.2148  -69.2462 H         1 UNK         0.0836 
    111 H111      -78.4744   25.9542  -69.5703 H         1 UNK         0.0836 
    112 H112      -76.0691   23.3853  -73.0394 H         1 UNK         0.3022 
    113 H113      -75.5555   22.0983  -76.3035 H         1 UNK         0.0747 
    114 H114      -75.5891   19.9068  -75.1669 H         1 UNK         0.0793 
    115 H115      -74.0348   20.6802  -74.9130 H         1 UNK         0.0793 
    116 H116      -75.2222   20.6654  -73.6165 H         1 UNK         0.0793 
    117 H117      -77.5042   21.3363  -74.4904 H         1 UNK         0.3047 
    118 H118      -79.6724   21.9079  -75.1010 H         1 UNK         0.0822 
    119 H119      -79.4257   24.2633  -73.1422 H         1 UNK         0.0807 
    120 H120      -78.9580   22.6087  -72.7707 H         1 UNK         0.0807 
    121 H121      -80.6410   22.9910  -73.0860 H         1 UNK         0.0807 
    122 H122      -80.8140   24.5184  -75.1103 H         1 UNK         0.2946 
    123 H123      -81.2912   24.9079  -78.5774 H         1 UNK         0.1144 
    124 H124      -83.6893   24.9931  -77.9403 H         1 UNK         0.0793 
    125 H125      -83.3415   24.1569  -76.4281 H         1 UNK         0.0793 
    126 H126      -83.1049   23.3372  -77.9629 H         1 UNK         0.0793 
    127 H127      -81.1420   26.8650  -77.6168 H         1 UNK         0.2896 
@<TRIPOS>BOND
     1    1    2 1    
     2    1   67 1    
     3    1   68 1    
     4    1   69 1    
     5    2    3 2    
     6    2    4 am   BACKBONE|DICT|INTERRES
     7    4    5 1    
     8    4   70 1    
     9    5    6 1    
    10    5   65 1    
    11    5   71 1    
    12    6    7 1    
    13    6   72 1    
    14    6   73 1    
    15    7    8 1    
    16    8    9 1    
    17    8   74 1    
    18    8   75 1    
    19    9   10 ar   
    20    9   14 ar   
    21   10   11 ar   
    22   10   76 1    
    23   11   12 ar   
    24   11   48 1    
    25   12   13 ar   
    26   12   77 1    
    27   13   14 ar   
    28   13   15 1    
    29   14   78 1    
    30   15   16 1    
    31   15   79 1    
    32   15   80 1    
    33   16   17 1    
    34   17   18 1    
    35   17   81 1    
    36   17   82 1    
    37   18   19 1    
    38   18   22 1    
    39   18   83 1    
    40   19   20 am   BACKBONE|DICT|INTERRES
    41   19   21 2    
    42   20   84 1    
    43   20   85 1    
    44   22   23 am   BACKBONE|DICT|INTERRES
    45   22   86 1    
    46   23   24 2    
    47   23   25 1    
    48   25   26 1    
    49   25   27 1    
    50   25   87 1    
    51   26   88 1    
    52   26   89 1    
    53   26   90 1    
    54   27   28 am   BACKBONE|DICT|INTERRES
    55   27   91 1    
    56   28   29 2    
    57   28   30 1    
    58   30   31 1    
    59   30   32 1    
    60   30   92 1    
    61   31   93 1    
    62   31   94 1    
    63   31   95 1    
    64   32   33 am   BACKBONE|DICT|INTERRES
    65   32   96 1    
    66   33   34 2    
    67   33   35 1    
    68   35   36 1    
    69   35   37 1    
    70   35   97 1    
    71   36   98 1    
    72   36   99 1    
    73   36  100 1    
    74   37   38 am   BACKBONE|DICT|INTERRES
    75   37  101 1    
    76   38   39 2    
    77   38   40 1    
    78   40   41 1    
    79   40   42 1    
    80   40  102 1    
    81   41  103 1    
    82   41  104 1    
    83   41  105 1    
    84   42   43 am   BACKBONE|DICT|INTERRES
    85   42  106 1    
    86   43   44 2    
    87   43   45 1    
    88   45   46 1    
    89   45   49 1    
    90   45  107 1    
    91   46   47 1    
    92   46  108 1    
    93   46  109 1    
    94   47   48 1    
    95   48  110 1    
    96   48  111 1    
    97   49   50 am   BACKBONE|DICT|INTERRES
    98   49  112 1    
    99   50   51 2    
   100   50   52 1    
   101   52   53 1    
   102   52   54 1    
   103   52  113 1    
   104   53  114 1    
   105   53  115 1    
   106   53  116 1    
   107   54   55 am   BACKBONE|DICT|INTERRES
   108   54  117 1    
   109   55   56 2    
   110   55   57 1    
   111   57   58 1    
   112   57   59 1    
   113   57  118 1    
   114   58  119 1    
   115   58  120 1    
   116   58  121 1    
   117   59   60 am   BACKBONE|DICT|INTERRES
   118   59  122 1    
   119   60   61 2    
   120   60   62 1    
   121   62   63 1    
   122   62   64 1    
   123   62  123 1    
   124   63  124 1    
   125   63  125 1    
   126   63  126 1    
   127   64   65 am   BACKBONE|DICT|INTERRES
   128   64  127 1    
   129   65   66 2    
@<TRIPOS>SUBSTRUCTURE
     1 UNK         1 GROUP             0       ****    0 ROOT    
