@<TRIPOS>MOLECULE
3R135
127   129    1
SMALL
USER_CHARGES


@<TRIPOS>ATOM
      1 CA        -79.5552   31.3614  -75.6345 C.3       0 UNK        -0.1998 
      2 C         -79.6701   30.0025  -74.9604 C.2       0 UNK         0.4909 
      3 O         -79.0497   29.0418  -75.4149 O.2       0 UNK        -0.5240 
      4 N         -80.4474   29.9194  -73.8727 N.am      1 UNK        -0.4739 
      5 CA        -80.6967   28.6876  -73.1198 C.3       1 UNK         0.0864 
      6 C6        -81.2685   28.9979  -71.7115 C.3       11 UNK        -0.0881 
      7 S7        -80.9853   27.6510  -70.5116 S.3       11 UNK        -0.2682 
      8 C8        -79.4645   28.2073  -69.6725 C.3       11 UNK         0.0289 
      9 C9        -78.2534   28.0445  -70.5772 C.ar      11 UNK        -0.0687 
     10 C10       -77.5902   26.8159  -70.6440 C.ar      11 UNK        -0.0823 
     11 C11       -76.5238   26.6264  -71.5319 C.ar      11 UNK        -0.0830 
     12 C12       -76.1281   27.6886  -72.3515 C.ar      11 UNK        -0.1021 
     13 C13       -76.7685   28.9283  -72.2764 C.ar      11 UNK        -0.0753 
     14 C14       -77.8182   29.1074  -71.3733 C.ar      11 UNK        -0.0933 
     15 C15       -76.3433   30.0621  -73.1938 C.3       11 UNK         0.0166 
     16 S16       -74.8502   30.8886  -72.5732 S.3       11 UNK        -0.2615 
     17 C17       -74.5340   32.0578  -73.9395 C.3       11 UNK        -0.0865 
     18 CA        -73.6959   31.4329  -75.0939 C.3       10 UNK         0.0862 
     19 C         -73.5321   32.3899  -76.3143 C.2       10 UNK         0.5551 
     20 N         -72.4221   32.3519  -77.0440 N.am      10 UNK        -0.7319 
     21 O         -74.4371   33.1602  -76.6266 O.2       10 UNK        -0.5018 
     22 N         -72.4418   30.8095  -74.6426 N.am      10 UNK        -0.4509 
     23 C         -71.4037   31.4345  -74.0666 C.2       10 UNK         0.4899 
     24 O         -71.3995   32.6267  -73.7589 O.2       10 UNK        -0.4839 
     25 CA        -70.1343   30.5987  -73.8070 C.3       9 UNK         0.0222 
     26 CB        -70.0795   30.1594  -72.3347 C.3       9 UNK        -0.1966 
     27 N         -70.0154   29.4157  -74.6648 N.am      9 UNK        -0.4218 
     28 C         -69.9436   29.4250  -76.0044 C.2       9 UNK         0.5020 
     29 O         -69.8770   30.4523  -76.6815 O.2       9 UNK        -0.5274 
     30 CA        -70.0151   28.0587  -76.7114 C.3       8 UNK         0.0270 
     31 CB        -68.6023   27.5512  -77.0430 C.3       8 UNK        -0.1976 
     32 N         -70.7408   27.0251  -75.9587 N.am      8 UNK        -0.4313 
     33 C         -72.0282   27.0951  -75.5902 C.2       8 UNK         0.5041 
     34 O         -72.7508   28.0747  -75.7903 O.2       8 UNK        -0.5577 
     35 CA        -72.5829   25.8946  -74.8085 C.3       7 UNK         0.0284 
     36 CB        -72.5080   26.1635  -73.2962 C.3       7 UNK        -0.1958 
     37 N         -73.9650   25.6010  -75.2004 N.am      7 UNK        -0.4454 
     38 C         -74.2990   25.0299  -76.3654 C.2       7 UNK         0.5089 
     39 O         -73.4676   24.6498  -77.1934 O.2       7 UNK        -0.5125 
     40 CA        -75.8078   24.8415  -76.6449 C.3       6 UNK         0.0408 
     41 CB        -76.0666   24.0371  -77.9340 C.3       6 UNK        -0.1791 
     42 N         -76.5906   24.2611  -75.5417 N.am      6 UNK        -0.4762 
     43 C         -76.2910   23.1887  -74.7871 C.2       6 UNK         0.5007 
     44 O         -75.2374   22.5559  -74.8598 O.2       6 UNK        -0.5032 
     45 CA        -77.3887   22.7094  -73.8208 C.3       5 UNK         0.0783 
     46 C46       -77.8344   23.7964  -72.8064 C.3       11 UNK        -0.0857 
     47 S47       -76.7809   23.8160  -71.3208 S.3       11 UNK        -0.2512 
     48 C48       -75.7626   25.3029  -71.6037 C.3       11 UNK         0.0225 
     49 N         -78.5142   22.2100  -74.6075 N.am      5 UNK        -0.4615 
     50 C         -78.6785   20.9342  -74.9858 C.2       4 UNK         0.5053 
     51 O         -77.9232   20.0201  -74.6542 O.2       4 UNK        -0.5105 
     52 CA        -79.8957   20.6049  -75.8721 C.3       4 UNK         0.0263 
     53 CB        -81.0281   20.0034  -75.0236 C.3       4 UNK        -0.1981 
     54 N         -80.4096   21.7686  -76.5955 N.am      4 UNK        -0.4224 
     55 C         -79.7934   22.3592  -77.6289 C.2       3 UNK         0.4895 
     56 O         -78.7913   21.9023  -78.1780 O.2       3 UNK        -0.5091 
     57 CA        -80.3770   23.6990  -78.1169 C.3       3 UNK         0.0250 
     58 CB        -81.2150   23.4881  -79.3882 C.3       3 UNK        -0.1996 
     59 N         -81.1888   24.3998  -77.1129 N.am      3 UNK        -0.4254 
     60 C         -80.7296   24.8865  -75.9516 C.2       2 UNK         0.5004 
     61 O         -79.5580   24.7841  -75.5723 O.2       2 UNK        -0.5226 
     62 CA        -81.7705   25.5243  -75.0280 C.3       2 UNK         0.0269 
     63 CB        -82.4036   24.4609  -74.1141 C.3       2 UNK        -0.1926 
     64 N         -81.1102   26.5312  -74.2056 N.am      2 UNK        -0.4687 
     65 C         -81.6042   27.7418  -73.9284 C.2       1 UNK         0.5165 
     66 O         -82.7185   28.1308  -74.2882 O.2       1 UNK        -0.5079 
     67 H67       -78.5133   31.6797  -75.6605 H         1 UNK         0.0900 
     68 H68       -80.1304   32.1261  -75.1128 H         1 UNK         0.0900 
     69 H69       -79.9194   31.3028  -76.6598 H         1 UNK         0.0900 
     70 H70       -80.9645   30.7321  -73.5692 H         1 UNK         0.2959 
     71 H71       -79.7321   28.1921  -72.9988 H         1 UNK         0.1079 
     72 H72       -80.8148   29.9056  -71.3111 H         1 UNK         0.0837 
     73 H73       -82.3386   29.2099  -71.7576 H         1 UNK         0.0837 
     74 H74       -79.5721   29.2437  -69.3488 H         1 UNK         0.0685 
     75 H75       -79.3273   27.6181  -68.7645 H         1 UNK         0.0685 
     76 H76       -77.9197   26.0042  -70.0104 H         1 UNK         0.1434 
     77 H77       -75.3126   27.5638  -73.0484 H         1 UNK         0.1329 
     78 H78       -78.3238   30.0617  -71.3214 H         1 UNK         0.1335 
     79 H79       -76.1581   29.6687  -74.1945 H         1 UNK         0.0680 
     80 H80       -77.1455   30.7949  -73.2928 H         1 UNK         0.0680 
     81 H81       -74.0260   32.9326  -73.5313 H         1 UNK         0.1032 
     82 H82       -75.4924   32.4227  -74.3133 H         1 UNK         0.1032 
     83 H83       -74.2809   30.6033  -75.4918 H         1 UNK         0.0461 
     84 H84       -72.3321   32.9674  -77.8365 H         1 UNK         0.3453 
     85 H85       -71.6687   31.7181  -76.8090 H         1 UNK         0.3453 
     86 H86       -72.3517   29.8291  -74.8906 H         1 UNK         0.2984 
     87 H87       -69.2735   31.2395  -74.0083 H         1 UNK         0.0554 
     88 H88       -69.1506   29.6356  -72.1081 H         1 UNK         0.0847 
     89 H89       -70.9108   29.5009  -72.0787 H         1 UNK         0.0847 
     90 H90       -70.1326   31.0219  -71.6686 H         1 UNK         0.0847 
     91 H91       -70.0627   28.5183  -74.2058 H         1 UNK         0.3141 
     92 H92       -70.5517   28.2125  -77.6501 H         1 UNK         0.0743 
     93 H93       -68.0233   27.3472  -76.1414 H         1 UNK         0.0784 
     94 H94       -68.6368   26.6369  -77.6360 H         1 UNK         0.0784 
     95 H95       -68.0490   28.2901  -77.6248 H         1 UNK         0.0784 
     96 H96       -70.2224   26.1854  -75.7410 H         1 UNK         0.3213 
     97 H97       -71.9734   25.0150  -75.0286 H         1 UNK         0.0855 
     98 H98       -73.0788   27.0462  -73.0080 H         1 UNK         0.0814 
     99 H99       -71.4771   26.3342  -72.9832 H         1 UNK         0.0814 
    100 H100      -72.8750   25.3134  -72.7218 H         1 UNK         0.0814 
    101 H101      -74.7025   25.9294  -74.5979 H         1 UNK         0.3105 
    102 H102      -76.2066   25.8447  -76.8027 H         1 UNK         0.0547 
    103 H103      -75.5450   24.4724  -78.7872 H         1 UNK         0.0837 
    104 H104      -75.7338   23.0031  -77.8368 H         1 UNK         0.0837 
    105 H105      -77.1259   24.0258  -78.1839 H         1 UNK         0.0837 
    106 H106      -77.5172   24.6613  -75.4237 H         1 UNK         0.3020 
    107 H107      -76.9726   21.8733  -73.2529 H         1 UNK         0.1245 
    108 H108      -78.8439   23.5778  -72.4539 H         1 UNK         0.0781 
    109 H109      -77.8983   24.7914  -73.2499 H         1 UNK         0.0781 
    110 H110      -75.2755   25.1969  -72.5724 H         1 UNK         0.0836 
    111 H111      -74.9666   25.3248  -70.8583 H         1 UNK         0.0836 
    112 H112      -79.1357   22.9200  -74.9777 H         1 UNK         0.3022 
    113 H113      -79.5789   19.8573  -76.6027 H         1 UNK         0.0747 
    114 H114      -81.8731   19.7035  -75.6438 H         1 UNK         0.0793 
    115 H115      -80.6869   19.1134  -74.4927 H         1 UNK         0.0793 
    116 H116      -81.3922   20.7089  -74.2755 H         1 UNK         0.0793 
    117 H117      -81.2468   22.1981  -76.2313 H         1 UNK         0.3047 
    118 H118      -79.5339   24.3462  -78.3668 H         1 UNK         0.0822 
    119 H119      -81.5599   24.4371  -79.7994 H         1 UNK         0.0807 
    120 H120      -82.0899   22.8651  -79.1977 H         1 UNK         0.0807 
    121 H121      -80.6282   22.9961  -80.1655 H         1 UNK         0.0807 
    122 H122      -82.1681   24.5143  -77.3342 H         1 UNK         0.2946 
    123 H123      -82.5449   25.9869  -75.6448 H         1 UNK         0.1144 
    124 H124      -82.9206   23.6967  -74.6957 H         1 UNK         0.0793 
    125 H125      -83.1381   24.9059  -73.4425 H         1 UNK         0.0793 
    126 H126      -81.6547   23.9574  -73.5008 H         1 UNK         0.0793 
    127 H127      -80.1556   26.3093  -73.9542 H         1 UNK         0.2896 
@<TRIPOS>BOND
     1    1    2 1    
     2    1   67 1    
     3    1   68 1    
     4    1   69 1    
     5    2    3 2    
     6    2    4 am   BACKBONE|DICT|INTERRES
     7    4    5 1    
     8    4   70 1    
     9    5    6 1    
    10    5   65 1    
    11    5   71 1    
    12    6    7 1    
    13    6   72 1    
    14    6   73 1    
    15    7    8 1    
    16    8    9 1    
    17    8   74 1    
    18    8   75 1    
    19    9   10 ar   
    20    9   14 ar   
    21   10   11 ar   
    22   10   76 1    
    23   11   12 ar   
    24   11   48 1    
    25   12   13 ar   
    26   12   77 1    
    27   13   14 ar   
    28   13   15 1    
    29   14   78 1    
    30   15   16 1    
    31   15   79 1    
    32   15   80 1    
    33   16   17 1    
    34   17   18 1    
    35   17   81 1    
    36   17   82 1    
    37   18   19 1    
    38   18   22 1    
    39   18   83 1    
    40   19   20 am   BACKBONE|DICT|INTERRES
    41   19   21 2    
    42   20   84 1    
    43   20   85 1    
    44   22   23 am   BACKBONE|DICT|INTERRES
    45   22   86 1    
    46   23   24 2    
    47   23   25 1    
    48   25   26 1    
    49   25   27 1    
    50   25   87 1    
    51   26   88 1    
    52   26   89 1    
    53   26   90 1    
    54   27   28 am   BACKBONE|DICT|INTERRES
    55   27   91 1    
    56   28   29 2    
    57   28   30 1    
    58   30   31 1    
    59   30   32 1    
    60   30   92 1    
    61   31   93 1    
    62   31   94 1    
    63   31   95 1    
    64   32   33 am   BACKBONE|DICT|INTERRES
    65   32   96 1    
    66   33   34 2    
    67   33   35 1    
    68   35   36 1    
    69   35   37 1    
    70   35   97 1    
    71   36   98 1    
    72   36   99 1    
    73   36  100 1    
    74   37   38 am   BACKBONE|DICT|INTERRES
    75   37  101 1    
    76   38   39 2    
    77   38   40 1    
    78   40   41 1    
    79   40   42 1    
    80   40  102 1    
    81   41  103 1    
    82   41  104 1    
    83   41  105 1    
    84   42   43 am   BACKBONE|DICT|INTERRES
    85   42  106 1    
    86   43   44 2    
    87   43   45 1    
    88   45   46 1    
    89   45   49 1    
    90   45  107 1    
    91   46   47 1    
    92   46  108 1    
    93   46  109 1    
    94   47   48 1    
    95   48  110 1    
    96   48  111 1    
    97   49   50 am   BACKBONE|DICT|INTERRES
    98   49  112 1    
    99   50   51 2    
   100   50   52 1    
   101   52   53 1    
   102   52   54 1    
   103   52  113 1    
   104   53  114 1    
   105   53  115 1    
   106   53  116 1    
   107   54   55 am   BACKBONE|DICT|INTERRES
   108   54  117 1    
   109   55   56 2    
   110   55   57 1    
   111   57   58 1    
   112   57   59 1    
   113   57  118 1    
   114   58  119 1    
   115   58  120 1    
   116   58  121 1    
   117   59   60 am   BACKBONE|DICT|INTERRES
   118   59  122 1    
   119   60   61 2    
   120   60   62 1    
   121   62   63 1    
   122   62   64 1    
   123   62  123 1    
   124   63  124 1    
   125   63  125 1    
   126   63  126 1    
   127   64   65 am   BACKBONE|DICT|INTERRES
   128   64  127 1    
   129   65   66 2    
@<TRIPOS>SUBSTRUCTURE
     1 UNK         1 GROUP             0       ****    0 ROOT    
