@<TRIPOS>MOLECULE
3R135
127   129    1
SMALL
USER_CHARGES


@<TRIPOS>ATOM
      1 CA        -84.6818   23.8091  -70.5477 C.3       0 UNK        -0.1998 
      2 C         -84.2871   25.1454  -71.1585 C.2       0 UNK         0.4909 
      3 O         -84.7480   26.1903  -70.6972 O.2       0 UNK        -0.5240 
      4 N         -83.4441   25.1196  -72.1942 N.am      1 UNK        -0.4739 
      5 CA        -82.9611   26.2876  -72.9303 C.3       1 UNK         0.0864 
      6 C6        -81.9113   27.1223  -72.1442 C.3       11 UNK        -0.0881 
      7 S7        -80.4115   26.1990  -71.6567 S.3       11 UNK        -0.2682 
      8 C8        -79.6103   27.4080  -70.5529 C.3       11 UNK         0.0289 
      9 C9        -78.5297   28.2050  -71.2712 C.ar      11 UNK        -0.0687 
     10 C10       -78.8700   29.2200  -72.1711 C.ar      11 UNK        -0.0823 
     11 C11       -77.8773   29.9443  -72.8395 C.ar      11 UNK        -0.0830 
     12 C12       -76.5329   29.6597  -72.5813 C.ar      11 UNK        -0.1021 
     13 C13       -76.1794   28.6497  -71.6817 C.ar      11 UNK        -0.0753 
     14 C14       -77.1813   27.9300  -71.0265 C.ar      11 UNK        -0.0933 
     15 C15       -74.7156   28.3214  -71.4416 C.3       11 UNK         0.0166 
     16 S16       -73.8667   29.6812  -70.5795 S.3       11 UNK        -0.2615 
     17 C17       -72.1271   29.1391  -70.6751 C.3       11 UNK        -0.0865 
     18 CA        -71.3799   29.7737  -71.8770 C.3       10 UNK         0.0862 
     19 C         -69.8615   29.4663  -71.8073 C.2       10 UNK         0.5551 
     20 N         -69.0371   30.4553  -71.4918 N.am      10 UNK        -0.7319 
     21 O         -69.4357   28.3278  -71.9898 O.2       10 UNK        -0.5018 
     22 N         -71.9518   29.3181  -73.1480 N.am      10 UNK        -0.4509 
     23 C         -71.7862   29.9041  -74.3382 C.2       10 UNK         0.4899 
     24 O         -71.1739   30.9601  -74.5049 O.2       10 UNK        -0.4839 
     25 CA        -72.4380   29.1812  -75.5358 C.3       9 UNK         0.0222 
     26 CB        -71.8784   29.6461  -76.8974 C.3       9 UNK        -0.1966 
     27 N         -72.3902   27.7158  -75.4146 N.am      9 UNK        -0.4218 
     28 C         -71.2862   26.9542  -75.3427 C.2       9 UNK         0.5020 
     29 O         -70.1361   27.3830  -75.4408 O.2       9 UNK        -0.5274 
     30 CA        -71.5030   25.4558  -75.1087 C.3       8 UNK         0.0270 
     31 CB        -71.8322   25.1770  -73.6306 C.3       8 UNK        -0.1976 
     32 N         -72.5663   24.9284  -75.9666 N.am      8 UNK        -0.4313 
     33 C         -72.3431   24.3102  -77.1335 C.2       8 UNK         0.5041 
     34 O         -71.2244   24.1537  -77.6257 O.2       8 UNK        -0.5577 
     35 CA        -73.5631   23.7278  -77.8607 C.3       7 UNK         0.0284 
     36 CB        -74.0878   22.4830  -77.1253 C.3       7 UNK        -0.1958 
     37 N         -74.6511   24.6883  -78.0547 N.am      7 UNK        -0.4454 
     38 C         -74.6318   25.6739  -78.9636 C.2       7 UNK         0.5089 
     39 O         -73.6530   25.9483  -79.6587 O.2       7 UNK        -0.5125 
     40 CA        -75.9372   26.4634  -79.1622 C.3       6 UNK         0.0408 
     41 CB        -76.9751   25.6228  -79.9236 C.3       6 UNK        -0.1791 
     42 N         -76.5126   26.9144  -77.8980 N.am      6 UNK        -0.4762 
     43 C         -76.0403   27.9353  -77.1708 C.2       6 UNK         0.5007 
     44 O         -75.1117   28.6573  -77.5303 O.2       6 UNK        -0.5032 
     45 CA        -76.6957   28.1634  -75.7938 C.3       5 UNK         0.0783 
     46 C46       -77.9471   29.0794  -75.8832 C.3       11 UNK        -0.0857 
     47 S47       -77.5244   30.8100  -75.4902 S.3       11 UNK        -0.2512 
     48 C48       -78.2669   31.0332  -73.8353 C.3       11 UNK         0.0225 
     49 N         -76.9864   26.8976  -75.1188 N.am      5 UNK        -0.4615 
     50 C         -76.0537   26.0442  -74.6779 C.2       4 UNK         0.5053 
     51 O         -74.8423   26.2564  -74.7551 O.2       4 UNK        -0.5105 
     52 CA        -76.5506   24.7110  -74.0947 C.3       4 UNK         0.0263 
     53 CB        -76.7088   24.8064  -72.5715 C.3       4 UNK        -0.1981 
     54 N         -77.8110   24.2590  -74.6929 N.am      4 UNK        -0.4224 
     55 C         -77.9249   23.8410  -75.9611 C.2       3 UNK         0.4895 
     56 O         -76.9825   23.7828  -76.7492 O.2       3 UNK        -0.5091 
     57 CA        -79.3334   23.4766  -76.4482 C.3       3 UNK         0.0250 
     58 CB        -79.8247   22.1731  -75.7979 C.3       3 UNK        -0.1996 
     59 N         -80.3204   24.5378  -76.2348 N.am      3 UNK        -0.4254 
     60 C         -80.2514   25.7881  -76.7084 C.2       2 UNK         0.5004 
     61 O         -79.2743   26.2403  -77.3036 O.2       2 UNK        -0.5226 
     62 CA        -81.4779   26.6942  -76.4983 C.3       2 UNK         0.0269 
     63 CB        -82.6145   26.3102  -77.4658 C.3       2 UNK        -0.1926 
     64 N         -81.9669   26.7931  -75.1138 N.am      2 UNK        -0.4687 
     65 C         -82.4827   25.8383  -74.3245 C.2       1 UNK         0.5165 
     66 O         -82.5950   24.6537  -74.6572 O.2       1 UNK        -0.5079 
     67 H67       -84.3966   23.7788  -69.4965 H         1 UNK         0.0900 
     68 H68       -85.7605   23.6700  -70.6132 H         1 UNK         0.0900 
     69 H69       -84.2002   22.9723  -71.0536 H         1 UNK         0.0900 
     70 H70       -83.1297   24.2400  -72.5858 H         1 UNK         0.2959 
     71 H71       -83.8251   26.9295  -73.1175 H         1 UNK         0.1079 
     72 H72       -81.6181   28.0042  -72.7125 H         1 UNK         0.0837 
     73 H73       -82.3779   27.5104  -71.2376 H         1 UNK         0.0837 
     74 H74       -80.3488   28.0873  -70.1253 H         1 UNK         0.0685 
     75 H75       -79.1802   26.8662  -69.7093 H         1 UNK         0.0685 
     76 H76       -79.9104   29.4450  -72.3534 H         1 UNK         0.1434 
     77 H77       -75.7584   30.2185  -73.0889 H         1 UNK         0.1329 
     78 H78       -76.9112   27.1466  -70.3318 H         1 UNK         0.1335 
     79 H79       -74.2449   28.1259  -72.4045 H         1 UNK         0.0680 
     80 H80       -74.6116   27.4066  -70.8559 H         1 UNK         0.0680 
     81 H81       -72.0755   28.0489  -70.7090 H         1 UNK         0.1032 
     82 H82       -71.6477   29.4311  -69.7385 H         1 UNK         0.1032 
     83 H83       -71.5151   30.8562  -71.8215 H         1 UNK         0.0461 
     84 H84       -68.0488   30.2680  -71.4254 H         1 UNK         0.3453 
     85 H85       -69.3814   31.3901  -71.3352 H         1 UNK         0.3453 
     86 H86       -72.4277   28.4309  -73.1221 H         1 UNK         0.2984 
     87 H87       -73.4937   29.4519  -75.5054 H         1 UNK         0.0554 
     88 H88       -72.0581   30.7109  -77.0495 H         1 UNK         0.0847 
     89 H89       -72.3564   29.1178  -77.7224 H         1 UNK         0.0847 
     90 H90       -70.8029   29.4842  -76.9728 H         1 UNK         0.0847 
     91 H91       -73.2884   27.2520  -75.3013 H         1 UNK         0.3141 
     92 H92       -70.5618   24.9476  -75.3303 H         1 UNK         0.0743 
     93 H93       -72.7569   25.6576  -73.3120 H         1 UNK         0.0784 
     94 H94       -71.9318   24.1076  -73.4445 H         1 UNK         0.0784 
     95 H95       -71.0364   25.5454  -72.9813 H         1 UNK         0.0784 
     96 H96       -73.5199   25.0821  -75.6557 H         1 UNK         0.3213 
     97 H97       -73.2276   23.4041  -78.8488 H         1 UNK         0.0855 
     98 H98       -74.4701   22.7264  -76.1336 H         1 UNK         0.0814 
     99 H99       -73.2974   21.7422  -76.9976 H         1 UNK         0.0814 
    100 H100      -74.8927   22.0042  -77.6834 H         1 UNK         0.0814 
    101 H101      -75.5182   24.5009  -77.5526 H         1 UNK         0.3105 
    102 H102      -75.7094   27.3417  -79.7701 H         1 UNK         0.0547 
    103 H103      -77.8730   26.2030  -80.1368 H         1 UNK         0.0837 
    104 H104      -77.2779   24.7403  -79.3587 H         1 UNK         0.0837 
    105 H105      -76.5755   25.2793  -80.8786 H         1 UNK         0.0837 
    106 H106      -77.3316   26.4160  -77.5593 H         1 UNK         0.3020 
    107 H107      -75.9397   28.6561  -75.1789 H         1 UNK         0.1245 
    108 H108      -78.7252   28.7476  -75.1944 H         1 UNK         0.0781 
    109 H109      -78.4134   29.0436  -76.8701 H         1 UNK         0.0781 
    110 H110      -79.3509   31.0824  -73.9494 H         1 UNK         0.0836 
    111 H111      -77.9578   32.0010  -73.4386 H         1 UNK         0.0836 
    112 H112      -77.9563   26.6304  -75.0523 H         1 UNK         0.3022 
    113 H113      -75.7855   23.9613  -74.3070 H         1 UNK         0.0747 
    114 H114      -76.9176   23.8304  -72.1333 H         1 UNK         0.0793 
    115 H115      -75.7982   25.1839  -72.1039 H         1 UNK         0.0793 
    116 H116      -77.5228   25.4759  -72.2965 H         1 UNK         0.0793 
    117 H117      -78.6373   24.2894  -74.1128 H         1 UNK         0.3047 
    118 H118      -79.2679   23.3117  -77.5257 H         1 UNK         0.0822 
    119 H119      -80.7659   21.8433  -76.2383 H         1 UNK         0.0807 
    120 H120      -79.9818   22.2868  -74.7246 H         1 UNK         0.0807 
    121 H121      -79.1024   21.3679  -75.9404 H         1 UNK         0.0807 
    122 H122      -81.1640   24.2929  -75.7203 H         1 UNK         0.2946 
    123 H123      -81.1556   27.7018  -76.7682 H         1 UNK         0.1144 
    124 H124      -83.0090   25.3142  -77.2624 H         1 UNK         0.0793 
    125 H125      -82.2638   26.3138  -78.4989 H         1 UNK         0.0793 
    126 H126      -83.4423   27.0165  -77.4038 H         1 UNK         0.0793 
    127 H127      -81.9065   27.7229  -74.7231 H         1 UNK         0.2896 
@<TRIPOS>BOND
     1    1    2 1    
     2    1   67 1    
     3    1   68 1    
     4    1   69 1    
     5    2    3 2    
     6    2    4 am   BACKBONE|DICT|INTERRES
     7    4    5 1    
     8    4   70 1    
     9    5    6 1    
    10    5   65 1    
    11    5   71 1    
    12    6    7 1    
    13    6   72 1    
    14    6   73 1    
    15    7    8 1    
    16    8    9 1    
    17    8   74 1    
    18    8   75 1    
    19    9   10 ar   
    20    9   14 ar   
    21   10   11 ar   
    22   10   76 1    
    23   11   12 ar   
    24   11   48 1    
    25   12   13 ar   
    26   12   77 1    
    27   13   14 ar   
    28   13   15 1    
    29   14   78 1    
    30   15   16 1    
    31   15   79 1    
    32   15   80 1    
    33   16   17 1    
    34   17   18 1    
    35   17   81 1    
    36   17   82 1    
    37   18   19 1    
    38   18   22 1    
    39   18   83 1    
    40   19   20 am   BACKBONE|DICT|INTERRES
    41   19   21 2    
    42   20   84 1    
    43   20   85 1    
    44   22   23 am   BACKBONE|DICT|INTERRES
    45   22   86 1    
    46   23   24 2    
    47   23   25 1    
    48   25   26 1    
    49   25   27 1    
    50   25   87 1    
    51   26   88 1    
    52   26   89 1    
    53   26   90 1    
    54   27   28 am   BACKBONE|DICT|INTERRES
    55   27   91 1    
    56   28   29 2    
    57   28   30 1    
    58   30   31 1    
    59   30   32 1    
    60   30   92 1    
    61   31   93 1    
    62   31   94 1    
    63   31   95 1    
    64   32   33 am   BACKBONE|DICT|INTERRES
    65   32   96 1    
    66   33   34 2    
    67   33   35 1    
    68   35   36 1    
    69   35   37 1    
    70   35   97 1    
    71   36   98 1    
    72   36   99 1    
    73   36  100 1    
    74   37   38 am   BACKBONE|DICT|INTERRES
    75   37  101 1    
    76   38   39 2    
    77   38   40 1    
    78   40   41 1    
    79   40   42 1    
    80   40  102 1    
    81   41  103 1    
    82   41  104 1    
    83   41  105 1    
    84   42   43 am   BACKBONE|DICT|INTERRES
    85   42  106 1    
    86   43   44 2    
    87   43   45 1    
    88   45   46 1    
    89   45   49 1    
    90   45  107 1    
    91   46   47 1    
    92   46  108 1    
    93   46  109 1    
    94   47   48 1    
    95   48  110 1    
    96   48  111 1    
    97   49   50 am   BACKBONE|DICT|INTERRES
    98   49  112 1    
    99   50   51 2    
   100   50   52 1    
   101   52   53 1    
   102   52   54 1    
   103   52  113 1    
   104   53  114 1    
   105   53  115 1    
   106   53  116 1    
   107   54   55 am   BACKBONE|DICT|INTERRES
   108   54  117 1    
   109   55   56 2    
   110   55   57 1    
   111   57   58 1    
   112   57   59 1    
   113   57  118 1    
   114   58  119 1    
   115   58  120 1    
   116   58  121 1    
   117   59   60 am   BACKBONE|DICT|INTERRES
   118   59  122 1    
   119   60   61 2    
   120   60   62 1    
   121   62   63 1    
   122   62   64 1    
   123   62  123 1    
   124   63  124 1    
   125   63  125 1    
   126   63  126 1    
   127   64   65 am   BACKBONE|DICT|INTERRES
   128   64  127 1    
   129   65   66 2    
@<TRIPOS>SUBSTRUCTURE
     1 UNK         1 GROUP             0       ****    0 ROOT    
