@<TRIPOS>MOLECULE
3R135
127   129    1
SMALL
USER_CHARGES


@<TRIPOS>ATOM
      1 CA        -83.9604   27.2576  -74.4387 C.3       0 UNK        -0.1998 
      2 C         -82.5409   26.7701  -74.6840 C.2       0 UNK         0.4909 
      3 O         -82.1458   25.7465  -74.1265 O.2       0 UNK        -0.5240 
      4 N         -81.7827   27.4865  -75.5279 N.am      1 UNK        -0.4739 
      5 CA        -80.3770   27.2298  -75.8829 C.3       1 UNK         0.0864 
      6 C6        -79.3858   27.5588  -74.7376 C.3       11 UNK        -0.0881 
      7 S7        -79.4452   29.3034  -74.1954 S.3       11 UNK        -0.2682 
      8 C8        -77.7007   29.8175  -74.3561 C.3       11 UNK         0.0289 
      9 C9        -76.8516   29.4405  -73.1441 C.ar      11 UNK        -0.0687 
     10 C10       -76.6185   28.1006  -72.8261 C.ar      11 UNK        -0.0823 
     11 C11       -75.8106   27.7408  -71.7465 C.ar      11 UNK        -0.0830 
     12 C12       -75.2392   28.7446  -70.9586 C.ar      11 UNK        -0.1021 
     13 C13       -75.4729   30.0938  -71.2514 C.ar      11 UNK        -0.0753 
     14 C14       -76.2733   30.4337  -72.3478 C.ar      11 UNK        -0.0933 
     15 C15       -74.9053   31.1927  -70.3644 C.3       11 UNK         0.0166 
     16 S16       -73.2995   31.8012  -70.9655 S.3       11 UNK        -0.2615 
     17 C17       -72.1520   30.6240  -70.1713 C.3       11 UNK        -0.0865 
     18 CA        -70.9097   30.3085  -71.0403 C.3       10 UNK         0.0862 
     19 C         -69.9398   29.3750  -70.2629 C.2       10 UNK         0.5551 
     20 N         -68.9650   29.9383  -69.5626 N.am      10 UNK        -0.7319 
     21 O         -70.0953   28.1553  -70.2509 O.2       10 UNK        -0.5018 
     22 N         -71.2970   29.7774  -72.3551 N.am      10 UNK        -0.4509 
     23 C         -70.4551   29.4849  -73.3542 C.2       10 UNK         0.4899 
     24 O         -69.2368   29.6599  -73.3083 O.2       10 UNK        -0.4839 
     25 CA        -71.0787   28.9088  -74.6353 C.3       9 UNK         0.0222 
     26 CB        -71.1578   27.3764  -74.5477 C.3       9 UNK        -0.1966 
     27 N         -72.4090   29.4423  -74.9351 N.am      9 UNK        -0.4218 
     28 C         -72.6868   30.7029  -75.2918 C.2       9 UNK         0.5020 
     29 O         -71.8418   31.5964  -75.3732 O.2       9 UNK        -0.5274 
     30 CA        -74.1542   30.9835  -75.6772 C.3       8 UNK         0.0270 
     31 CB        -74.4380   32.4793  -75.9069 C.3       8 UNK        -0.1976 
     32 N         -74.5469   30.2270  -76.8731 N.am      8 UNK        -0.4313 
     33 C         -74.8080   28.9149  -76.8810 C.2       8 UNK         0.5041 
     34 O         -74.7986   28.2209  -75.8602 O.2       8 UNK        -0.5577 
     35 CA        -75.0839   28.2507  -78.2342 C.3       7 UNK         0.0284 
     36 CB        -73.7763   28.0927  -79.0357 C.3       7 UNK        -0.1958 
     37 N         -75.6652   26.9469  -77.9367 N.am      7 UNK        -0.4454 
     38 C         -76.2165   26.0690  -78.7776 C.2       7 UNK         0.5089 
     39 O         -76.3152   26.2586  -79.9906 O.2       7 UNK        -0.5125 
     40 CA        -76.8013   24.7804  -78.1614 C.3       6 UNK         0.0408 
     41 CB        -76.4296   23.5198  -78.9690 C.3       6 UNK        -0.1791 
     42 N         -76.5330   24.6034  -76.7229 N.am      6 UNK        -0.4762 
     43 C         -75.3571   24.3333  -76.1300 C.2       6 UNK         0.5007 
     44 O         -74.3053   24.1799  -76.7511 O.2       6 UNK        -0.5032 
     45 CA        -75.3197   24.2540  -74.5842 C.3       5 UNK         0.0783 
     46 C46       -74.6334   25.5240  -74.0164 C.3       11 UNK        -0.0857 
     47 S47       -74.2202   25.4615  -72.2367 S.3       11 UNK        -0.2512 
     48 C48       -75.6286   26.2678  -71.3968 C.3       11 UNK         0.0225 
     49 N         -76.6313   24.0190  -73.9634 N.am      5 UNK        -0.4615 
     50 C         -77.3587   22.8989  -74.0728 C.2       4 UNK         0.5053 
     51 O         -77.0424   21.9477  -74.7876 O.2       4 UNK        -0.5105 
     52 CA        -78.6349   22.7971  -73.2221 C.3       4 UNK         0.0263 
     53 CB        -78.8104   23.9184  -72.1775 C.3       4 UNK        -0.1981 
     54 N         -79.8048   22.7719  -74.0952 N.am      4 UNK        -0.4224 
     55 C         -80.8264   21.9107  -73.9823 C.2       3 UNK         0.4895 
     56 O         -80.8630   21.0054  -73.1470 O.2       3 UNK        -0.5091 
     57 CA        -82.0293   22.0784  -74.9310 C.3       3 UNK         0.0250 
     58 CB        -83.3029   22.4248  -74.1400 C.3       3 UNK        -0.1996 
     59 N         -81.8146   23.1037  -75.9532 N.am      3 UNK        -0.4254 
     60 C         -81.2186   22.8836  -77.1331 C.2       2 UNK         0.5004 
     61 O         -80.8355   21.7748  -77.5068 O.2       2 UNK        -0.5226 
     62 CA        -81.0022   24.0964  -78.0581 C.3       2 UNK         0.0269 
     63 CB        -82.0490   24.1023  -79.1841 C.3       2 UNK        -0.1926 
     64 N         -81.0217   25.4015  -77.3853 N.am      2 UNK        -0.4687 
     65 C         -80.1664   25.8004  -76.4329 C.2       1 UNK         0.5165 
     66 O         -79.2807   25.0762  -75.9698 O.2       1 UNK        -0.5079 
     67 H67       -84.1033   27.4722  -73.3801 H         1 UNK         0.0900 
     68 H68       -84.6759   26.4894  -74.7304 H         1 UNK         0.0900 
     69 H69       -84.1847   28.1632  -75.0019 H         1 UNK         0.0900 
     70 H70       -82.1812   28.3138  -75.9501 H         1 UNK         0.2959 
     71 H71       -80.1434   27.8967  -76.7147 H         1 UNK         0.1079 
     72 H72       -79.5686   26.9204  -73.8718 H         1 UNK         0.0837 
     73 H73       -78.3765   27.3376  -75.0850 H         1 UNK         0.0837 
     74 H74       -77.2676   29.3860  -75.2582 H         1 UNK         0.0685 
     75 H75       -77.6803   30.8980  -74.5053 H         1 UNK         0.0685 
     76 H76       -77.0685   27.3220  -73.4161 H         1 UNK         0.1434 
     77 H77       -74.6370   28.4725  -70.1032 H         1 UNK         0.1329 
     78 H78       -76.4489   31.4761  -72.5763 H         1 UNK         0.1335 
     79 H79       -74.8123   30.8462  -69.3339 H         1 UNK         0.0680 
     80 H80       -75.6023   32.0317  -70.3341 H         1 UNK         0.0680 
     81 H81       -72.6787   29.7006  -69.9283 H         1 UNK         0.1032 
     82 H82       -71.8475   31.0556  -69.2157 H         1 UNK         0.1032 
     83 H83       -70.3874   31.2484  -71.2308 H         1 UNK         0.0461 
     84 H84       -68.3360   29.3509  -69.0376 H         1 UNK         0.3453 
     85 H85       -68.8363   30.9384  -69.5582 H         1 UNK         0.3453 
     86 H86       -72.2824   29.6073  -72.4899 H         1 UNK         0.2984 
     87 H87       -70.4238   29.1690  -75.4695 H         1 UNK         0.0554 
     88 H88       -71.5521   26.9433  -75.4673 H         1 UNK         0.0847 
     89 H89       -71.7938   27.0537  -73.7223 H         1 UNK         0.0847 
     90 H90       -70.1698   26.9441  -74.3835 H         1 UNK         0.0847 
     91 H91       -73.1820   28.7810  -74.9705 H         1 UNK         0.3141 
     92 H92       -74.7712   30.6596  -74.8373 H         1 UNK         0.0743 
     93 H93       -74.1752   33.0643  -75.0243 H         1 UNK         0.0784 
     94 H94       -73.8652   32.8773  -76.7455 H         1 UNK         0.0784 
     95 H95       -75.4950   32.6556  -76.1069 H         1 UNK         0.0784 
     96 H96       -74.5332   30.7291  -77.7497 H         1 UNK         0.3213 
     97 H97       -75.8065   28.8499  -78.7914 H         1 UNK         0.0855 
     98 H98       -73.3124   29.0601  -79.2314 H         1 UNK         0.0814 
     99 H99       -73.9518   27.6232  -80.0035 H         1 UNK         0.0814 
    100 H100      -73.0483   27.4841  -78.4973 H         1 UNK         0.0814 
    101 H101      -75.6297   26.7264  -76.9479 H         1 UNK         0.3105 
    102 H102      -77.8805   24.8976  -78.2425 H         1 UNK         0.0547 
    103 H103      -76.7930   23.5922  -79.9948 H         1 UNK         0.0837 
    104 H104      -75.3510   23.3713  -79.0210 H         1 UNK         0.0837 
    105 H105      -76.8730   22.6249  -78.5325 H         1 UNK         0.0837 
    106 H106      -77.3539   24.7087  -76.1328 H         1 UNK         0.3020 
    107 H107      -74.6906   23.3943  -74.3421 H         1 UNK         0.1245 
    108 H108      -75.2344   26.4011  -74.2271 H         1 UNK         0.0781 
    109 H109      -73.6890   25.6977  -74.5352 H         1 UNK         0.0781 
    110 H110      -75.4840   26.1672  -70.3200 H         1 UNK         0.0836 
    111 H111      -76.5435   25.7225  -71.6178 H         1 UNK         0.0836 
    112 H112      -76.9689   24.7442  -73.3520 H         1 UNK         0.3022 
    113 H113      -78.5504   21.8522  -72.6813 H         1 UNK         0.0747 
    114 H114      -79.7196   23.7646  -71.5956 H         1 UNK         0.0793 
    115 H115      -77.9838   23.9247  -71.4669 H         1 UNK         0.0793 
    116 H116      -78.8850   24.9047  -72.6364 H         1 UNK         0.0793 
    117 H117      -79.8216   23.4704  -74.8316 H         1 UNK         0.3047 
    118 H118      -82.1911   21.1142  -75.4179 H         1 UNK         0.0822 
    119 H119      -84.1651   22.5275  -74.7989 H         1 UNK         0.0807 
    120 H120      -83.1924   23.3553  -73.5826 H         1 UNK         0.0807 
    121 H121      -83.5401   21.6417  -73.4186 H         1 UNK         0.0807 
    122 H122      -82.0601   24.0522  -75.6972 H         1 UNK         0.2946 
    123 H123      -80.0173   23.9697  -78.5111 H         1 UNK         0.1144 
    124 H124      -81.8480   24.8903  -79.9102 H         1 UNK         0.0793 
    125 H125      -83.0577   24.2499  -78.7962 H         1 UNK         0.0793 
    126 H126      -82.0445   23.1565  -79.7281 H         1 UNK         0.0793 
    127 H127      -81.7413   26.0476  -77.6778 H         1 UNK         0.2896 
@<TRIPOS>BOND
     1    1    2 1    
     2    1   67 1    
     3    1   68 1    
     4    1   69 1    
     5    2    3 2    
     6    2    4 am   BACKBONE|DICT|INTERRES
     7    4    5 1    
     8    4   70 1    
     9    5    6 1    
    10    5   65 1    
    11    5   71 1    
    12    6    7 1    
    13    6   72 1    
    14    6   73 1    
    15    7    8 1    
    16    8    9 1    
    17    8   74 1    
    18    8   75 1    
    19    9   10 ar   
    20    9   14 ar   
    21   10   11 ar   
    22   10   76 1    
    23   11   12 ar   
    24   11   48 1    
    25   12   13 ar   
    26   12   77 1    
    27   13   14 ar   
    28   13   15 1    
    29   14   78 1    
    30   15   16 1    
    31   15   79 1    
    32   15   80 1    
    33   16   17 1    
    34   17   18 1    
    35   17   81 1    
    36   17   82 1    
    37   18   19 1    
    38   18   22 1    
    39   18   83 1    
    40   19   20 am   BACKBONE|DICT|INTERRES
    41   19   21 2    
    42   20   84 1    
    43   20   85 1    
    44   22   23 am   BACKBONE|DICT|INTERRES
    45   22   86 1    
    46   23   24 2    
    47   23   25 1    
    48   25   26 1    
    49   25   27 1    
    50   25   87 1    
    51   26   88 1    
    52   26   89 1    
    53   26   90 1    
    54   27   28 am   BACKBONE|DICT|INTERRES
    55   27   91 1    
    56   28   29 2    
    57   28   30 1    
    58   30   31 1    
    59   30   32 1    
    60   30   92 1    
    61   31   93 1    
    62   31   94 1    
    63   31   95 1    
    64   32   33 am   BACKBONE|DICT|INTERRES
    65   32   96 1    
    66   33   34 2    
    67   33   35 1    
    68   35   36 1    
    69   35   37 1    
    70   35   97 1    
    71   36   98 1    
    72   36   99 1    
    73   36  100 1    
    74   37   38 am   BACKBONE|DICT|INTERRES
    75   37  101 1    
    76   38   39 2    
    77   38   40 1    
    78   40   41 1    
    79   40   42 1    
    80   40  102 1    
    81   41  103 1    
    82   41  104 1    
    83   41  105 1    
    84   42   43 am   BACKBONE|DICT|INTERRES
    85   42  106 1    
    86   43   44 2    
    87   43   45 1    
    88   45   46 1    
    89   45   49 1    
    90   45  107 1    
    91   46   47 1    
    92   46  108 1    
    93   46  109 1    
    94   47   48 1    
    95   48  110 1    
    96   48  111 1    
    97   49   50 am   BACKBONE|DICT|INTERRES
    98   49  112 1    
    99   50   51 2    
   100   50   52 1    
   101   52   53 1    
   102   52   54 1    
   103   52  113 1    
   104   53  114 1    
   105   53  115 1    
   106   53  116 1    
   107   54   55 am   BACKBONE|DICT|INTERRES
   108   54  117 1    
   109   55   56 2    
   110   55   57 1    
   111   57   58 1    
   112   57   59 1    
   113   57  118 1    
   114   58  119 1    
   115   58  120 1    
   116   58  121 1    
   117   59   60 am   BACKBONE|DICT|INTERRES
   118   59  122 1    
   119   60   61 2    
   120   60   62 1    
   121   62   63 1    
   122   62   64 1    
   123   62  123 1    
   124   63  124 1    
   125   63  125 1    
   126   63  126 1    
   127   64   65 am   BACKBONE|DICT|INTERRES
   128   64  127 1    
   129   65   66 2    
@<TRIPOS>SUBSTRUCTURE
     1 UNK         1 GROUP             0       ****    0 ROOT    
