@<TRIPOS>MOLECULE
3R135
127   129    1
SMALL
USER_CHARGES


@<TRIPOS>ATOM
      1 CA        -84.7490   29.9032  -76.0578 C.3       0 UNK        -0.1998 
      2 C         -83.6416   28.9438  -75.6492 C.2       0 UNK         0.4909 
      3 O         -83.9333   27.8471  -75.1699 O.2       0 UNK        -0.5240 
      4 N         -82.3779   29.3470  -75.8467 N.am      1 UNK        -0.4739 
      5 CA        -81.1314   28.6282  -75.5302 C.3       1 UNK         0.0864 
      6 C6        -80.9693   28.2763  -74.0242 C.3       11 UNK        -0.0881 
      7 S7        -80.7628   29.7869  -73.0244 S.3       11 UNK        -0.2682 
      8 C8        -80.4709   29.1091  -71.3582 C.3       11 UNK         0.0289 
      9 C9        -79.0363   28.6403  -71.1318 C.ar      11 UNK        -0.0687 
     10 C10       -78.7862   27.3431  -70.6723 C.ar      11 UNK        -0.0823 
     11 C11       -77.4830   26.9295  -70.3758 C.ar      11 UNK        -0.0830 
     12 C12       -76.4172   27.8112  -70.5812 C.ar      11 UNK        -0.1021 
     13 C13       -76.6510   29.1126  -71.0383 C.ar      11 UNK        -0.0753 
     14 C14       -77.9628   29.5224  -71.3027 C.ar      11 UNK        -0.0933 
     15 C15       -75.4956   30.0943  -71.1884 C.3       11 UNK         0.0166 
     16 S16       -75.1782   30.5143  -72.9291 S.3       11 UNK        -0.2615 
     17 C17       -73.7309   31.6185  -72.7767 C.3       11 UNK        -0.0865 
     18 CA        -72.3851   30.9924  -73.2416 C.3       10 UNK         0.0862 
     19 C         -71.7898   29.9717  -72.2282 C.2       10 UNK         0.5551 
     20 N         -71.5212   30.4042  -71.0028 N.am      10 UNK        -0.7319 
     21 O         -71.5589   28.8034  -72.5308 O.2       10 UNK        -0.5018 
     22 N         -72.4786   30.4769  -74.6153 N.am      10 UNK        -0.4509 
     23 C         -71.4505   30.3419  -75.4600 C.2       10 UNK         0.4899 
     24 O         -70.2920   30.6727  -75.1997 O.2       10 UNK        -0.4839 
     25 CA        -71.8039   29.7589  -76.8365 C.3       9 UNK         0.0222 
     26 CB        -70.8375   30.2059  -77.9553 C.3       9 UNK        -0.1966 
     27 N         -71.9529   28.3015  -76.7834 N.am      9 UNK        -0.4218 
     28 C         -71.0008   27.3643  -76.6379 C.2       9 UNK         0.5020 
     29 O         -69.8007   27.6170  -76.5228 O.2       9 UNK        -0.5274 
     30 CA        -71.4347   25.8791  -76.6313 C.3       8 UNK         0.0270 
     31 CB        -71.0818   25.2153  -75.2891 C.3       8 UNK        -0.1976 
     32 N         -72.8573   25.6566  -76.9017 N.am      8 UNK        -0.4313 
     33 C         -73.4818   25.8583  -78.0706 C.2       8 UNK         0.5041 
     34 O         -72.8992   26.1391  -79.1181 O.2       8 UNK        -0.5577 
     35 CA        -75.0226   25.7945  -78.0547 C.3       7 UNK         0.0284 
     36 CB        -75.5099   24.4272  -78.5564 C.3       7 UNK        -0.1958 
     37 N         -75.6082   26.0741  -76.7360 N.am      7 UNK        -0.4454 
     38 C         -75.4595   27.2226  -76.0570 C.2       7 UNK         0.5089 
     39 O         -74.8475   28.1988  -76.4914 O.2       7 UNK        -0.5125 
     40 CA        -76.0215   27.2694  -74.6330 C.3       6 UNK         0.0408 
     41 CB        -77.4884   27.6985  -74.6325 C.3       6 UNK        -0.1791 
     42 N         -75.8843   25.9842  -73.9529 N.am      6 UNK        -0.4762 
     43 C         -74.7987   25.6187  -73.2579 C.2       6 UNK         0.5007 
     44 O         -73.8242   26.3471  -73.0811 O.2       6 UNK        -0.5032 
     45 CA        -74.7715   24.1886  -72.6830 C.3       5 UNK         0.0783 
     46 C46       -75.2376   24.1576  -71.2057 C.3       11 UNK        -0.0857 
     47 S47       -77.0530   24.2494  -70.9977 S.3       11 UNK        -0.2512 
     48 C48       -77.2463   25.5602  -69.7535 C.3       11 UNK         0.0225 
     49 N         -75.5033   23.2237  -73.5079 N.am      5 UNK        -0.4615 
     50 C         -75.1859   22.8724  -74.7594 C.2       4 UNK         0.5053 
     51 O         -74.1852   23.2761  -75.3510 O.2       4 UNK        -0.5105 
     52 CA        -76.1817   21.9496  -75.4858 C.3       4 UNK         0.0263 
     53 CB        -75.8085   20.4766  -75.2575 C.3       4 UNK        -0.1981 
     54 N         -77.5849   22.1639  -75.1055 N.am      4 UNK        -0.4224 
     55 C         -78.2543   23.3181  -75.2400 C.2       3 UNK         0.4895 
     56 O         -77.7437   24.3609  -75.6560 O.2       3 UNK        -0.5091 
     57 CA        -79.7167   23.3141  -74.7619 C.3       3 UNK         0.0250 
     58 CB        -79.7894   23.6496  -73.2642 C.3       3 UNK        -0.1996 
     59 N         -80.5523   24.2683  -75.4911 N.am      3 UNK        -0.4254 
     60 C         -80.8980   24.1708  -76.7818 C.2       2 UNK         0.5004 
     61 O         -80.5647   23.2349  -77.5105 O.2       2 UNK        -0.5226 
     62 CA        -81.7995   25.2818  -77.3544 C.3       2 UNK         0.0269 
     63 CB        -83.2321   24.7614  -77.5584 C.3       2 UNK        -0.1926 
     64 N         -81.8531   26.4898  -76.5234 N.am      2 UNK        -0.4687 
     65 C         -80.8869   27.4124  -76.4492 C.2       1 UNK         0.5165 
     66 O         -79.8408   27.3445  -77.0939 O.2       1 UNK        -0.5079 
     67 H67       -85.3698   30.1462  -75.1960 H         1 UNK         0.0900 
     68 H68       -84.3542   30.8342  -76.4643 H         1 UNK         0.0900 
     69 H69       -85.3825   29.4433  -76.8158 H         1 UNK         0.0900 
     70 H70       -82.2319   30.2550  -76.2663 H         1 UNK         0.2959 
     71 H71       -80.3312   29.3283  -75.7790 H         1 UNK         0.1079 
     72 H72       -81.8275   27.7166  -73.6508 H         1 UNK         0.0837 
     73 H73       -80.1062   27.6345  -73.8551 H         1 UNK         0.0837 
     74 H74       -80.6941   29.8875  -70.6275 H         1 UNK         0.0685 
     75 H75       -81.1834   28.3041  -71.1710 H         1 UNK         0.0685 
     76 H76       -79.6109   26.6634  -70.5061 H         1 UNK         0.1434 
     77 H77       -75.4085   27.4949  -70.3532 H         1 UNK         0.1329 
     78 H78       -78.1488   30.5338  -71.6375 H         1 UNK         0.1335 
     79 H79       -75.7241   31.0052  -70.6331 H         1 UNK         0.0680 
     80 H80       -74.5846   29.6831  -70.7507 H         1 UNK         0.0680 
     81 H81       -73.9366   32.4982  -73.3884 H         1 UNK         0.1032 
     82 H82       -73.6583   31.9999  -71.7571 H         1 UNK         0.1032 
     83 H83       -71.6631   31.8112  -73.2696 H         1 UNK         0.0461 
     84 H84       -71.1308   29.7584  -70.3346 H         1 UNK         0.3453 
     85 H85       -71.6763   31.3637  -70.7372 H         1 UNK         0.3453 
     86 H86       -73.3888   30.1331  -74.8881 H         1 UNK         0.2984 
     87 H87       -72.7887   30.1461  -77.1035 H         1 UNK         0.0554 
     88 H88       -70.8348   31.2924  -78.0495 H         1 UNK         0.0847 
     89 H89       -71.1332   29.7968  -78.9213 H         1 UNK         0.0847 
     90 H90       -69.8090   29.9004  -77.7626 H         1 UNK         0.0847 
     91 H91       -72.9188   27.9879  -76.8125 H         1 UNK         0.3141 
     92 H92       -70.8671   25.3783  -77.4181 H         1 UNK         0.0743 
     93 H93       -71.5900   25.7015  -74.4558 H         1 UNK         0.0784 
     94 H94       -71.3553   24.1598  -75.2811 H         1 UNK         0.0784 
     95 H95       -70.0103   25.2731  -75.0932 H         1 UNK         0.0784 
     96 H96       -73.4225   25.3516  -76.1191 H         1 UNK         0.3213 
     97 H97       -75.3902   26.5620  -78.7390 H         1 UNK         0.0855 
     98 H98       -75.0716   23.6125  -77.9815 H         1 UNK         0.0814 
     99 H99       -75.2242   24.2745  -79.5979 H         1 UNK         0.0814 
    100 H100      -76.5954   24.3398  -78.4998 H         1 UNK         0.0814 
    101 H101      -76.1902   25.3492  -76.3248 H         1 UNK         0.3105 
    102 H102      -75.4553   28.0199  -74.0845 H         1 UNK         0.0547 
    103 H103      -77.6234   28.6481  -75.1517 H         1 UNK         0.0837 
    104 H104      -78.1214   26.9578  -75.1192 H         1 UNK         0.0837 
    105 H105      -77.8420   27.8321  -73.6121 H         1 UNK         0.0837 
    106 H106      -76.6259   25.3105  -74.0992 H         1 UNK         0.3020 
    107 H107      -73.7222   23.8839  -72.7004 H         1 UNK         0.1245 
    108 H108      -74.7474   24.9462  -70.6316 H         1 UNK         0.0781 
    109 H109      -74.9096   23.2230  -70.7481 H         1 UNK         0.0781 
    110 H110      -76.3827   25.5831  -69.0873 H         1 UNK         0.0836 
    111 H111      -78.0954   25.3026  -69.1186 H         1 UNK         0.0836 
    112 H112      -76.3494   22.8542  -73.0994 H         1 UNK         0.3022 
    113 H113      -76.1033   22.1550  -76.5537 H         1 UNK         0.0747 
    114 H114      -76.4408   19.8104  -75.8448 H         1 UNK         0.0793 
    115 H115      -74.7765   20.2853  -75.5555 H         1 UNK         0.0793 
    116 H116      -75.9025   20.1927  -74.2085 H         1 UNK         0.0793 
    117 H117      -78.0756   21.3614  -74.7371 H         1 UNK         0.3047 
    118 H118      -80.1330   22.3170  -74.9205 H         1 UNK         0.0822 
    119 H119      -79.2308   22.9236  -72.6724 H         1 UNK         0.0807 
    120 H120      -80.8172   23.6328  -72.9012 H         1 UNK         0.0807 
    121 H121      -79.3745   24.6361  -73.0505 H         1 UNK         0.0807 
    122 H122      -80.8662   25.0804  -74.9830 H         1 UNK         0.2946 
    123 H123      -81.3903   25.5517  -78.3309 H         1 UNK         0.1144 
    124 H124      -83.8627   25.5126  -78.0344 H         1 UNK         0.0793 
    125 H125      -83.6980   24.4829  -76.6122 H         1 UNK         0.0793 
    126 H126      -83.2414   23.8790  -78.1998 H         1 UNK         0.0793 
    127 H127      -82.7052   26.6644  -75.9951 H         1 UNK         0.2896 
@<TRIPOS>BOND
     1    1    2 1    
     2    1   67 1    
     3    1   68 1    
     4    1   69 1    
     5    2    3 2    
     6    2    4 am   BACKBONE|DICT|INTERRES
     7    4    5 1    
     8    4   70 1    
     9    5    6 1    
    10    5   65 1    
    11    5   71 1    
    12    6    7 1    
    13    6   72 1    
    14    6   73 1    
    15    7    8 1    
    16    8    9 1    
    17    8   74 1    
    18    8   75 1    
    19    9   10 ar   
    20    9   14 ar   
    21   10   11 ar   
    22   10   76 1    
    23   11   12 ar   
    24   11   48 1    
    25   12   13 ar   
    26   12   77 1    
    27   13   14 ar   
    28   13   15 1    
    29   14   78 1    
    30   15   16 1    
    31   15   79 1    
    32   15   80 1    
    33   16   17 1    
    34   17   18 1    
    35   17   81 1    
    36   17   82 1    
    37   18   19 1    
    38   18   22 1    
    39   18   83 1    
    40   19   20 am   BACKBONE|DICT|INTERRES
    41   19   21 2    
    42   20   84 1    
    43   20   85 1    
    44   22   23 am   BACKBONE|DICT|INTERRES
    45   22   86 1    
    46   23   24 2    
    47   23   25 1    
    48   25   26 1    
    49   25   27 1    
    50   25   87 1    
    51   26   88 1    
    52   26   89 1    
    53   26   90 1    
    54   27   28 am   BACKBONE|DICT|INTERRES
    55   27   91 1    
    56   28   29 2    
    57   28   30 1    
    58   30   31 1    
    59   30   32 1    
    60   30   92 1    
    61   31   93 1    
    62   31   94 1    
    63   31   95 1    
    64   32   33 am   BACKBONE|DICT|INTERRES
    65   32   96 1    
    66   33   34 2    
    67   33   35 1    
    68   35   36 1    
    69   35   37 1    
    70   35   97 1    
    71   36   98 1    
    72   36   99 1    
    73   36  100 1    
    74   37   38 am   BACKBONE|DICT|INTERRES
    75   37  101 1    
    76   38   39 2    
    77   38   40 1    
    78   40   41 1    
    79   40   42 1    
    80   40  102 1    
    81   41  103 1    
    82   41  104 1    
    83   41  105 1    
    84   42   43 am   BACKBONE|DICT|INTERRES
    85   42  106 1    
    86   43   44 2    
    87   43   45 1    
    88   45   46 1    
    89   45   49 1    
    90   45  107 1    
    91   46   47 1    
    92   46  108 1    
    93   46  109 1    
    94   47   48 1    
    95   48  110 1    
    96   48  111 1    
    97   49   50 am   BACKBONE|DICT|INTERRES
    98   49  112 1    
    99   50   51 2    
   100   50   52 1    
   101   52   53 1    
   102   52   54 1    
   103   52  113 1    
   104   53  114 1    
   105   53  115 1    
   106   53  116 1    
   107   54   55 am   BACKBONE|DICT|INTERRES
   108   54  117 1    
   109   55   56 2    
   110   55   57 1    
   111   57   58 1    
   112   57   59 1    
   113   57  118 1    
   114   58  119 1    
   115   58  120 1    
   116   58  121 1    
   117   59   60 am   BACKBONE|DICT|INTERRES
   118   59  122 1    
   119   60   61 2    
   120   60   62 1    
   121   62   63 1    
   122   62   64 1    
   123   62  123 1    
   124   63  124 1    
   125   63  125 1    
   126   63  126 1    
   127   64   65 am   BACKBONE|DICT|INTERRES
   128   64  127 1    
   129   65   66 2    
@<TRIPOS>SUBSTRUCTURE
     1 UNK         1 GROUP             0       ****    0 ROOT    
