@<TRIPOS>MOLECULE
3R135
127   129    1
SMALL
USER_CHARGES


@<TRIPOS>ATOM
      1 CA        -79.8476   21.7968  -72.0385 C.3       0 UNK        -0.1998 
      2 C         -80.7856   22.9004  -72.5015 C.2       0 UNK         0.4909 
      3 O         -81.4824   22.7335  -73.5032 O.2       0 UNK        -0.5240 
      4 N         -80.7999   24.0348  -71.7901 N.am      1 UNK        -0.4739 
      5 CA        -81.5742   25.2371  -72.1171 C.3       1 UNK         0.0864 
      6 C6        -81.5134   26.3073  -70.9942 C.3       11 UNK        -0.0881 
      7 S7        -79.8502   26.5875  -70.2815 S.3       11 UNK        -0.2682 
      8 C8        -79.9075   28.3593  -69.8733 C.3       11 UNK         0.0289 
      9 C9        -79.0949   29.1911  -70.8540 C.ar      11 UNK        -0.0687 
     10 C10       -79.6746   29.6805  -72.0285 C.ar      11 UNK        -0.0823 
     11 C11       -78.9366   30.4885  -72.9017 C.ar      11 UNK        -0.0830 
     12 C12       -77.6053   30.7932  -72.5967 C.ar      11 UNK        -0.1021 
     13 C13       -77.0124   30.2996  -71.4308 C.ar      11 UNK        -0.0753 
     14 C14       -77.7638   29.5022  -70.5634 C.ar      11 UNK        -0.0933 
     15 C15       -75.5750   30.6563  -71.0823 C.3       11 UNK         0.0166 
     16 S16       -74.4816   29.2049  -71.1656 S.3       11 UNK        -0.2615 
     17 C17       -72.8954   29.9389  -70.6344 C.3       11 UNK        -0.0865 
     18 CA        -71.8559   30.0106  -71.7833 C.3       10 UNK         0.0862 
     19 C         -70.5958   30.7890  -71.3291 C.2       10 UNK         0.5551 
     20 N         -70.5542   32.0933  -71.5619 N.am      10 UNK        -0.7319 
     21 O         -69.6747   30.2294  -70.7358 O.2       10 UNK        -0.5018 
     22 N         -71.4746   28.6684  -72.2409 N.am      10 UNK        -0.4509 
     23 C         -71.7222   28.1571  -73.4495 C.2       10 UNK         0.4899 
     24 O         -72.3269   28.7517  -74.3441 O.2       10 UNK        -0.4839 
     25 CA        -71.2372   26.7116  -73.6650 C.3       9 UNK         0.0222 
     26 CB        -72.2350   25.7170  -73.0457 C.3       9 UNK        -0.1966 
     27 N         -71.0639   26.3793  -75.0793 N.am      9 UNK        -0.4218 
     28 C         -70.1382   26.8947  -75.9002 C.2       9 UNK         0.5020 
     29 O         -69.2575   27.6731  -75.5289 O.2       9 UNK        -0.5274 
     30 CA        -70.1704   26.4520  -77.3801 C.3       8 UNK         0.0270 
     31 CB        -68.8823   25.6948  -77.7491 C.3       8 UNK        -0.1976 
     32 N         -71.3252   25.6141  -77.7289 N.am      8 UNK        -0.4313 
     33 C         -72.5791   26.0602  -77.8815 C.2       8 UNK         0.5041 
     34 O         -72.8858   27.2513  -77.8039 O.2       8 UNK        -0.5577 
     35 CA        -73.6516   24.9837  -78.1339 C.3       7 UNK         0.0284 
     36 CB        -73.6650   23.9229  -77.0153 C.3       7 UNK        -0.1958 
     37 N         -74.9880   25.5722  -78.2368 N.am      7 UNK        -0.4454 
     38 C         -75.5162   26.0773  -79.3588 C.2       7 UNK         0.5089 
     39 O         -74.9427   26.0563  -80.4495 O.2       7 UNK        -0.5125 
     40 CA        -76.9317   26.6826  -79.2788 C.3       6 UNK         0.0408 
     41 CB        -77.9488   25.7358  -79.9366 C.3       6 UNK        -0.1791 
     42 N         -77.3818   26.9825  -77.9172 N.am      6 UNK        -0.4762 
     43 C         -76.9579   28.0138  -77.1716 C.2       6 UNK         0.5007 
     44 O         -76.1534   28.8571  -77.5680 O.2       6 UNK        -0.5032 
     45 CA        -77.5225   28.1041  -75.7356 C.3       5 UNK         0.0783 
     46 C46       -78.8975   28.8204  -75.7181 C.3       11 UNK        -0.0857 
     47 S47       -78.7275   30.6340  -75.6914 S.3       11 UNK        -0.2512 
     48 C48       -79.5951   31.0701  -74.1482 C.3       11 UNK         0.0225 
     49 N         -77.6004   26.7950  -75.0801 N.am      5 UNK        -0.4615 
     50 C         -76.5682   25.9720  -74.8512 C.2       4 UNK         0.5053 
     51 O         -75.4025   26.2356  -75.1361 O.2       4 UNK        -0.5105 
     52 CA        -76.9040   24.5961  -74.2570 C.3       4 UNK         0.0263 
     53 CB        -77.0622   24.6751  -72.7296 C.3       4 UNK        -0.1981 
     54 N         -78.1177   24.0457  -74.8641 N.am      4 UNK        -0.4224 
     55 C         -78.1639   23.5095  -76.0934 C.2       3 UNK         0.4895 
     56 O         -77.1718   23.3246  -76.7966 O.2       3 UNK        -0.5091 
     57 CA        -79.5492   23.1422  -76.6519 C.3       3 UNK         0.0250 
     58 CB        -79.8921   21.6774  -76.3387 C.3       3 UNK        -0.1996 
     59 N         -80.6113   24.0236  -76.1582 N.am      3 UNK        -0.4254 
     60 C         -80.7511   25.3028  -76.5411 C.2       2 UNK         0.5004 
     61 O         -80.0219   25.8469  -77.3687 O.2       2 UNK        -0.5226 
     62 CA        -81.8502   26.1367  -75.8567 C.3       2 UNK         0.0269 
     63 CB        -83.1645   26.0451  -76.6474 C.3       2 UNK        -0.1926 
     64 N         -82.0926   25.7633  -74.4596 N.am      2 UNK        -0.4687 
     65 C         -81.1646   25.7976  -73.4932 C.2       1 UNK         0.5165 
     66 O         -80.0109   26.1855  -73.6788 O.2       1 UNK        -0.5079 
     67 H67       -79.0881   21.6073  -72.7965 H         1 UNK         0.0900 
     68 H68       -79.3419   22.0561  -71.1086 H         1 UNK         0.0900 
     69 H69       -80.4052   20.8749  -71.8756 H         1 UNK         0.0900 
     70 H70       -80.1840   24.1372  -70.9953 H         1 UNK         0.2959 
     71 H71       -82.6169   24.9205  -72.1934 H         1 UNK         0.1079 
     72 H72       -82.1594   25.9945  -70.1725 H         1 UNK         0.0837 
     73 H73       -81.9335   27.2511  -71.3469 H         1 UNK         0.0837 
     74 H74       -80.9377   28.7157  -69.8350 H         1 UNK         0.0685 
     75 H75       -79.5135   28.4909  -68.8643 H         1 UNK         0.0685 
     76 H76       -80.7060   29.4442  -72.2513 H         1 UNK         0.1434 
     77 H77       -77.0355   31.4234  -73.2660 H         1 UNK         0.1329 
     78 H78       -77.3096   29.1277  -69.6560 H         1 UNK         0.1335 
     79 H79       -75.1942   31.4285  -71.7529 H         1 UNK         0.0680 
     80 H80       -75.5468   31.0751  -70.0752 H         1 UNK         0.0680 
     81 H81       -73.0805   30.9340  -70.2251 H         1 UNK         0.1032 
     82 H82       -72.5064   29.3461  -69.8043 H         1 UNK         0.1032 
     83 H83       -72.3030   30.5691  -72.6084 H         1 UNK         0.0461 
     84 H84       -71.3074   32.5631  -72.0401 H         1 UNK         0.3453 
     85 H85       -69.7482   32.6191  -71.2610 H         1 UNK         0.3453 
     86 H86       -70.9263   28.1338  -71.5818 H         1 UNK         0.2984 
     87 H87       -70.2702   26.5927  -73.1716 H         1 UNK         0.0554 
     88 H88       -72.3648   25.9019  -71.9785 H         1 UNK         0.0847 
     89 H89       -71.8936   24.6875  -73.1545 H         1 UNK         0.0847 
     90 H90       -73.2202   25.7961  -73.5079 H         1 UNK         0.0847 
     91 H91       -71.7735   25.7934  -75.4905 H         1 UNK         0.3141 
     92 H92       -70.2130   27.3617  -77.9830 H         1 UNK         0.0743 
     93 H93       -68.7752   24.7749  -77.1730 H         1 UNK         0.0784 
     94 H94       -68.8632   25.4345  -78.8076 H         1 UNK         0.0784 
     95 H95       -67.9992   26.3051  -77.5539 H         1 UNK         0.0784 
     96 H96       -71.1466   24.6238  -77.8212 H         1 UNK         0.3213 
     97 H97       -73.4087   24.4852  -79.0749 H         1 UNK         0.0855 
     98 H98       -73.7998   24.3697  -76.0304 H         1 UNK         0.0814 
     99 H99       -72.7366   23.3520  -76.9901 H         1 UNK         0.0814 
    100 H100      -74.4702   23.2035  -77.1648 H         1 UNK         0.0814 
    101 H101      -75.4901   25.7023  -77.3680 H         1 UNK         0.3105 
    102 H102      -76.9196   27.6149  -79.8470 H         1 UNK         0.0547 
    103 H103      -77.6666   25.5081  -80.9654 H         1 UNK         0.0837 
    104 H104      -78.0205   24.7890  -79.3995 H         1 UNK         0.0837 
    105 H105      -78.9439   26.1800  -79.9657 H         1 UNK         0.0837 
    106 H106      -78.1158   26.3872  -77.5434 H         1 UNK         0.3020 
    107 H107      -76.8121   28.6885  -75.1457 H         1 UNK         0.1245 
    108 H108      -79.4658   28.5211  -74.8370 H         1 UNK         0.0781 
    109 H109      -79.5156   28.5326  -76.5707 H         1 UNK         0.0781 
    110 H110      -80.6349   30.7486  -74.2273 H         1 UNK         0.0836 
    111 H111      -79.6193   32.1567  -74.0561 H         1 UNK         0.0836 
    112 H112      -78.5159   26.5212  -74.7318 H         1 UNK         0.3022 
    113 H113      -76.0704   23.9242  -74.4740 H         1 UNK         0.0747 
    114 H114      -77.2672   23.6947  -72.3001 H         1 UNK         0.0793 
    115 H115      -76.1477   25.0475  -72.2659 H         1 UNK         0.0793 
    116 H116      -77.8682   25.3469  -72.4341 H         1 UNK         0.0793 
    117 H117      -78.9874   24.2276  -74.3826 H         1 UNK         0.3047 
    118 H118      -79.5019   23.2490  -77.7381 H         1 UNK         0.0822 
    119 H119      -80.8601   21.3978  -76.7549 H         1 UNK         0.0807 
    120 H120      -79.9194   21.4846  -75.2665 H         1 UNK         0.0807 
    121 H121      -79.1484   21.0052  -76.7689 H         1 UNK         0.0807 
    122 H122      -81.2183   23.6529  -75.4347 H         1 UNK         0.2946 
    123 H123      -81.5185   27.1769  -75.8661 H         1 UNK         0.1144 
    124 H124      -83.9251   26.7068  -76.2324 H         1 UNK         0.0793 
    125 H125      -83.5651   25.0306  -76.6503 H         1 UNK         0.0793 
    126 H126      -83.0148   26.3395  -77.6873 H         1 UNK         0.0793 
    127 H127      -83.0096   25.3984  -74.2441 H         1 UNK         0.2896 
@<TRIPOS>BOND
     1    1    2 1    
     2    1   67 1    
     3    1   68 1    
     4    1   69 1    
     5    2    3 2    
     6    2    4 am   BACKBONE|DICT|INTERRES
     7    4    5 1    
     8    4   70 1    
     9    5    6 1    
    10    5   65 1    
    11    5   71 1    
    12    6    7 1    
    13    6   72 1    
    14    6   73 1    
    15    7    8 1    
    16    8    9 1    
    17    8   74 1    
    18    8   75 1    
    19    9   10 ar   
    20    9   14 ar   
    21   10   11 ar   
    22   10   76 1    
    23   11   12 ar   
    24   11   48 1    
    25   12   13 ar   
    26   12   77 1    
    27   13   14 ar   
    28   13   15 1    
    29   14   78 1    
    30   15   16 1    
    31   15   79 1    
    32   15   80 1    
    33   16   17 1    
    34   17   18 1    
    35   17   81 1    
    36   17   82 1    
    37   18   19 1    
    38   18   22 1    
    39   18   83 1    
    40   19   20 am   BACKBONE|DICT|INTERRES
    41   19   21 2    
    42   20   84 1    
    43   20   85 1    
    44   22   23 am   BACKBONE|DICT|INTERRES
    45   22   86 1    
    46   23   24 2    
    47   23   25 1    
    48   25   26 1    
    49   25   27 1    
    50   25   87 1    
    51   26   88 1    
    52   26   89 1    
    53   26   90 1    
    54   27   28 am   BACKBONE|DICT|INTERRES
    55   27   91 1    
    56   28   29 2    
    57   28   30 1    
    58   30   31 1    
    59   30   32 1    
    60   30   92 1    
    61   31   93 1    
    62   31   94 1    
    63   31   95 1    
    64   32   33 am   BACKBONE|DICT|INTERRES
    65   32   96 1    
    66   33   34 2    
    67   33   35 1    
    68   35   36 1    
    69   35   37 1    
    70   35   97 1    
    71   36   98 1    
    72   36   99 1    
    73   36  100 1    
    74   37   38 am   BACKBONE|DICT|INTERRES
    75   37  101 1    
    76   38   39 2    
    77   38   40 1    
    78   40   41 1    
    79   40   42 1    
    80   40  102 1    
    81   41  103 1    
    82   41  104 1    
    83   41  105 1    
    84   42   43 am   BACKBONE|DICT|INTERRES
    85   42  106 1    
    86   43   44 2    
    87   43   45 1    
    88   45   46 1    
    89   45   49 1    
    90   45  107 1    
    91   46   47 1    
    92   46  108 1    
    93   46  109 1    
    94   47   48 1    
    95   48  110 1    
    96   48  111 1    
    97   49   50 am   BACKBONE|DICT|INTERRES
    98   49  112 1    
    99   50   51 2    
   100   50   52 1    
   101   52   53 1    
   102   52   54 1    
   103   52  113 1    
   104   53  114 1    
   105   53  115 1    
   106   53  116 1    
   107   54   55 am   BACKBONE|DICT|INTERRES
   108   54  117 1    
   109   55   56 2    
   110   55   57 1    
   111   57   58 1    
   112   57   59 1    
   113   57  118 1    
   114   58  119 1    
   115   58  120 1    
   116   58  121 1    
   117   59   60 am   BACKBONE|DICT|INTERRES
   118   59  122 1    
   119   60   61 2    
   120   60   62 1    
   121   62   63 1    
   122   62   64 1    
   123   62  123 1    
   124   63  124 1    
   125   63  125 1    
   126   63  126 1    
   127   64   65 am   BACKBONE|DICT|INTERRES
   128   64  127 1    
   129   65   66 2    
@<TRIPOS>SUBSTRUCTURE
     1 UNK         1 GROUP             0       ****    0 ROOT    
