@<TRIPOS>MOLECULE
3R135
127   129    1
SMALL
USER_CHARGES


@<TRIPOS>ATOM
      1 CA        -85.1580   23.2236  -70.8198 C.3       0 UNK        -0.1998 
      2 C         -84.3312   23.9521  -71.8682 C.2       0 UNK         0.4909 
      3 O         -84.7266   24.0066  -73.0339 O.2       0 UNK        -0.5240 
      4 N         -83.1791   24.5078  -71.4706 N.am      1 UNK        -0.4739 
      5 CA        -82.2421   25.2339  -72.3356 C.3       1 UNK         0.0864 
      6 C6        -81.4101   26.2530  -71.5151 C.3       11 UNK        -0.0881 
      7 S7        -80.5790   27.4989  -72.5579 S.3       11 UNK        -0.2682 
      8 C8        -80.1755   28.7544  -71.3059 C.3       11 UNK         0.0289 
      9 C9        -78.9549   29.5626  -71.7148 C.ar      11 UNK        -0.0687 
     10 C10       -79.0623   30.5613  -72.6865 C.ar      11 UNK        -0.0823 
     11 C11       -77.9383   31.2975  -73.0758 C.ar      11 UNK        -0.0830 
     12 C12       -76.7047   31.0413  -72.4696 C.ar      11 UNK        -0.1021 
     13 C13       -76.5863   30.0425  -71.4994 C.ar      11 UNK        -0.0753 
     14 C14       -77.7140   29.3073  -71.1245 C.ar      11 UNK        -0.0933 
     15 C15       -75.2364   29.7394  -70.8735 C.3       11 UNK         0.0166 
     16 S16       -74.4914   28.2857  -71.6636 S.3       11 UNK        -0.2615 
     17 C17       -72.8004   28.3385  -70.9785 C.3       11 UNK        -0.0865 
     18 CA        -71.7900   29.0988  -71.8812 C.3       10 UNK         0.0862 
     19 C         -70.3544   28.9829  -71.2897 C.2       10 UNK         0.5551 
     20 N         -69.4453   28.2287  -71.8972 N.am      10 UNK        -0.7319 
     21 O         -70.0671   29.5854  -70.2585 O.2       10 UNK        -0.5018 
     22 N         -71.9192   28.6916  -73.2870 N.am      10 UNK        -0.4509 
     23 C         -71.3280   29.2560  -74.3468 C.2       10 UNK         0.4899 
     24 O         -70.6123   30.2561  -74.2820 O.2       10 UNK        -0.4839 
     25 CA        -71.5985   28.5897  -75.7118 C.3       9 UNK         0.0222 
     26 CB        -70.4004   28.6978  -76.6778 C.3       9 UNK        -0.1966 
     27 N         -72.0672   27.2008  -75.5984 N.am      9 UNK        -0.4218 
     28 C         -71.3984   26.1518  -75.0911 C.2       9 UNK         0.5020 
     29 O         -70.2405   26.2076  -74.6747 O.2       9 UNK        -0.5274 
     30 CA        -72.1630   24.8241  -74.9884 C.3       8 UNK         0.0270 
     31 CB        -72.7883   24.6765  -73.5895 C.3       8 UNK        -0.1976 
     32 N         -73.2143   24.7280  -76.0048 N.am      8 UNK        -0.4313 
     33 C         -73.0999   24.0349  -77.1446 C.2       8 UNK         0.5041 
     34 O         -72.1149   23.3572  -77.4421 O.2       8 UNK        -0.5577 
     35 CA        -74.2827   24.1000  -78.1229 C.3       7 UNK         0.0284 
     36 CB        -75.3919   23.1212  -77.7027 C.3       7 UNK        -0.1958 
     37 N         -74.8465   25.4428  -78.2798 N.am      7 UNK        -0.4454 
     38 C         -74.2378   26.4560  -78.9137 C.2       7 UNK         0.5089 
     39 O         -73.0886   26.3987  -79.3510 O.2       7 UNK        -0.5125 
     40 CA        -75.0519   27.7427  -79.1204 C.3       6 UNK         0.0408 
     41 CB        -76.0288   27.5721  -80.2954 C.3       6 UNK        -0.1791 
     42 N         -75.8054   28.0976  -77.9187 N.am      6 UNK        -0.4762 
     43 C         -75.5195   29.1260  -77.1066 C.2       6 UNK         0.5007 
     44 O         -74.6187   29.9366  -77.3229 O.2       6 UNK        -0.5032 
     45 CA        -76.3766   29.2728  -75.8264 C.3       5 UNK         0.0783 
     46 C46       -77.5308   30.2894  -76.0510 C.3       11 UNK        -0.0857 
     47 S47       -77.0268   31.9917  -75.6247 S.3       11 UNK        -0.2512 
     48 C48       -78.0580   32.3578  -74.1634 C.3       11 UNK         0.0225 
     49 N         -76.8823   27.9973  -75.3051 N.am      5 UNK        -0.4615 
     50 C         -76.1419   26.9255  -74.9895 C.2       4 UNK         0.5053 
     51 O         -74.9150   26.8785  -75.0883 O.2       4 UNK        -0.5105 
     52 CA        -76.9054   25.6528  -74.5851 C.3       4 UNK         0.0263 
     53 CB        -77.1092   25.6250  -73.0632 C.3       4 UNK        -0.1981 
     54 N         -78.1941   25.4623  -75.2720 N.am      4 UNK        -0.4224 
     55 C         -78.3789   25.4836  -76.6049 C.2       3 UNK         0.4895 
     56 O         -77.4742   25.7232  -77.4075 O.2       3 UNK        -0.5091 
     57 CA        -79.8040   25.2425  -77.1429 C.3       3 UNK         0.0250 
     58 CB        -79.8041   24.7268  -78.5986 C.3       3 UNK        -0.1996 
     59 N         -80.6342   24.3888  -76.2862 N.am      3 UNK        -0.4254 
     60 C         -80.4159   23.1102  -75.9389 C.2       2 UNK         0.5004 
     61 O         -79.4641   22.4388  -76.3401 O.2       2 UNK        -0.5226 
     62 CA        -81.4419   22.4917  -74.9639 C.3       2 UNK         0.0269 
     63 CB        -80.8716   21.2861  -74.1863 C.3       2 UNK        -0.1926 
     64 N         -82.0304   23.4725  -74.0365 N.am      2 UNK        -0.4687 
     65 C         -81.3776   24.2502  -73.1589 C.2       1 UNK         0.5165 
     66 O         -80.1570   24.2113  -73.0005 O.2       1 UNK        -0.5079 
     67 H67       -85.2814   22.1778  -71.1001 H         1 UNK         0.0900 
     68 H68       -84.6913   23.2585  -69.8356 H         1 UNK         0.0900 
     69 H69       -86.1467   23.6749  -70.7424 H         1 UNK         0.0900 
     70 H70       -82.8891   24.4011  -70.5085 H         1 UNK         0.2959 
     71 H71       -82.8315   25.8081  -73.0547 H         1 UNK         0.1079 
     72 H72       -80.6679   25.7503  -70.8916 H         1 UNK         0.0837 
     73 H73       -82.0681   26.7885  -70.8283 H         1 UNK         0.0837 
     74 H74       -81.0327   29.4144  -71.1650 H         1 UNK         0.0685 
     75 H75       -79.9967   28.2708  -70.3441 H         1 UNK         0.0685 
     76 H76       -80.0212   30.7499  -73.1500 H         1 UNK         0.1434 
     77 H77       -75.8325   31.6044  -72.7729 H         1 UNK         0.1329 
     78 H78       -77.6193   28.5266  -70.3821 H         1 UNK         0.1335 
     79 H79       -74.5675   30.5951  -70.9786 H         1 UNK         0.0680 
     80 H80       -75.3496   29.5579  -69.8037 H         1 UNK         0.0680 
     81 H81       -72.8280   28.7775  -69.9791 H         1 UNK         0.1032 
     82 H82       -72.4772   27.3047  -70.8404 H         1 UNK         0.1032 
     83 H83       -72.0498   30.1584  -71.8463 H         1 UNK         0.0461 
     84 H84       -68.5183   28.1596  -71.5083 H         1 UNK         0.3453 
     85 H85       -69.6777   27.7312  -72.7448 H         1 UNK         0.3453 
     86 H86       -72.5239   27.9005  -73.4505 H         1 UNK         0.2984 
     87 H87       -72.4235   29.1468  -76.1533 H         1 UNK         0.0554 
     88 H88       -70.1551   29.7407  -76.8814 H         1 UNK         0.0847 
     89 H89       -70.6212   28.2259  -77.6354 H         1 UNK         0.0847 
     90 H90       -69.5048   28.2288  -76.2696 H         1 UNK         0.0847 
     91 H91       -73.0517   27.0641  -75.8025 H         1 UNK         0.3141 
     92 H92       -71.4382   24.0173  -75.1162 H         1 UNK         0.0743 
     93 H93       -73.4968   25.4749  -73.3671 H         1 UNK         0.0784 
     94 H94       -73.3142   23.7269  -73.4902 H         1 UNK         0.0784 
     95 H95       -72.0195   24.7026  -72.8161 H         1 UNK         0.0784 
     96 H96       -74.0429   25.2928  -75.8494 H         1 UNK         0.3213 
     97 H97       -73.9132   23.7829  -79.1007 H         1 UNK         0.0855 
     98 H98       -75.8233   23.3832  -76.7367 H         1 UNK         0.0814 
     99 H99       -75.0051   22.1045  -77.6217 H         1 UNK         0.0814 
    100 H100      -76.2018   23.1022  -78.4324 H         1 UNK         0.0814 
    101 H101      -75.8101   25.5661  -77.9708 H         1 UNK         0.3105 
    102 H102      -74.3511   28.5382  -79.3821 H         1 UNK         0.0547 
    103 H103      -75.4982   27.2975  -81.2081 H         1 UNK         0.0837 
    104 H104      -76.7683   26.7941  -80.1002 H         1 UNK         0.0837 
    105 H105      -76.5654   28.4986  -80.4996 H         1 UNK         0.0837 
    106 H106      -76.5419   27.4547  -77.6443 H         1 UNK         0.3020 
    107 H107      -75.7100   29.6531  -75.0484 H         1 UNK         0.1245 
    108 H108      -78.4020   30.0262  -75.4504 H         1 UNK         0.0781 
    109 H109      -77.8921   30.2760  -77.0815 H         1 UNK         0.0781 
    110 H110      -79.0944   32.4681  -74.4863 H         1 UNK         0.0836 
    111 H111      -77.7614   33.3243  -73.7540 H         1 UNK         0.0836 
    112 H112      -77.8818   27.9263  -75.1885 H         1 UNK         0.3022 
    113 H113      -76.2757   24.8029  -74.8515 H         1 UNK         0.0747 
    114 H114      -77.7705   26.4249  -72.7290 H         1 UNK         0.0793 
    115 H115      -77.5340   24.6765  -72.7356 H         1 UNK         0.0793 
    116 H116      -76.1604   25.7490  -72.5393 H         1 UNK         0.0793 
    117 H117      -78.9812   25.2293  -74.6782 H         1 UNK         0.3047 
    118 H118      -80.2844   26.2219  -77.1456 H         1 UNK         0.0822 
    119 H119      -80.8185   24.5745  -78.9669 H         1 UNK         0.0807 
    120 H120      -79.2665   23.7827  -78.6929 H         1 UNK         0.0807 
    121 H121      -79.3229   25.4407  -79.2685 H         1 UNK         0.0807 
    122 H122      -81.4509   24.8346  -75.8921 H         1 UNK         0.2946 
    123 H123      -82.2598   22.1249  -75.5863 H         1 UNK         0.1144 
    124 H124      -81.6157   20.8599  -73.5135 H         1 UNK         0.0793 
    125 H125      -80.0005   21.5632  -73.5916 H         1 UNK         0.0793 
    126 H126      -80.5604   20.4924  -74.8667 H         1 UNK         0.0793 
    127 H127      -83.0431   23.5586  -74.0565 H         1 UNK         0.2896 
@<TRIPOS>BOND
     1    1    2 1    
     2    1   67 1    
     3    1   68 1    
     4    1   69 1    
     5    2    3 2    
     6    2    4 am   BACKBONE|DICT|INTERRES
     7    4    5 1    
     8    4   70 1    
     9    5    6 1    
    10    5   65 1    
    11    5   71 1    
    12    6    7 1    
    13    6   72 1    
    14    6   73 1    
    15    7    8 1    
    16    8    9 1    
    17    8   74 1    
    18    8   75 1    
    19    9   10 ar   
    20    9   14 ar   
    21   10   11 ar   
    22   10   76 1    
    23   11   12 ar   
    24   11   48 1    
    25   12   13 ar   
    26   12   77 1    
    27   13   14 ar   
    28   13   15 1    
    29   14   78 1    
    30   15   16 1    
    31   15   79 1    
    32   15   80 1    
    33   16   17 1    
    34   17   18 1    
    35   17   81 1    
    36   17   82 1    
    37   18   19 1    
    38   18   22 1    
    39   18   83 1    
    40   19   20 am   BACKBONE|DICT|INTERRES
    41   19   21 2    
    42   20   84 1    
    43   20   85 1    
    44   22   23 am   BACKBONE|DICT|INTERRES
    45   22   86 1    
    46   23   24 2    
    47   23   25 1    
    48   25   26 1    
    49   25   27 1    
    50   25   87 1    
    51   26   88 1    
    52   26   89 1    
    53   26   90 1    
    54   27   28 am   BACKBONE|DICT|INTERRES
    55   27   91 1    
    56   28   29 2    
    57   28   30 1    
    58   30   31 1    
    59   30   32 1    
    60   30   92 1    
    61   31   93 1    
    62   31   94 1    
    63   31   95 1    
    64   32   33 am   BACKBONE|DICT|INTERRES
    65   32   96 1    
    66   33   34 2    
    67   33   35 1    
    68   35   36 1    
    69   35   37 1    
    70   35   97 1    
    71   36   98 1    
    72   36   99 1    
    73   36  100 1    
    74   37   38 am   BACKBONE|DICT|INTERRES
    75   37  101 1    
    76   38   39 2    
    77   38   40 1    
    78   40   41 1    
    79   40   42 1    
    80   40  102 1    
    81   41  103 1    
    82   41  104 1    
    83   41  105 1    
    84   42   43 am   BACKBONE|DICT|INTERRES
    85   42  106 1    
    86   43   44 2    
    87   43   45 1    
    88   45   46 1    
    89   45   49 1    
    90   45  107 1    
    91   46   47 1    
    92   46  108 1    
    93   46  109 1    
    94   47   48 1    
    95   48  110 1    
    96   48  111 1    
    97   49   50 am   BACKBONE|DICT|INTERRES
    98   49  112 1    
    99   50   51 2    
   100   50   52 1    
   101   52   53 1    
   102   52   54 1    
   103   52  113 1    
   104   53  114 1    
   105   53  115 1    
   106   53  116 1    
   107   54   55 am   BACKBONE|DICT|INTERRES
   108   54  117 1    
   109   55   56 2    
   110   55   57 1    
   111   57   58 1    
   112   57   59 1    
   113   57  118 1    
   114   58  119 1    
   115   58  120 1    
   116   58  121 1    
   117   59   60 am   BACKBONE|DICT|INTERRES
   118   59  122 1    
   119   60   61 2    
   120   60   62 1    
   121   62   63 1    
   122   62   64 1    
   123   62  123 1    
   124   63  124 1    
   125   63  125 1    
   126   63  126 1    
   127   64   65 am   BACKBONE|DICT|INTERRES
   128   64  127 1    
   129   65   66 2    
@<TRIPOS>SUBSTRUCTURE
     1 UNK         1 GROUP             0       ****    0 ROOT    
