@<TRIPOS>MOLECULE
3R135
127   129    1
SMALL
USER_CHARGES


@<TRIPOS>ATOM
      1 CA        -80.4993   29.4326  -70.5294 C.3       0 UNK        -0.1998 
      2 C         -81.2447   28.6550  -71.6019 C.2       0 UNK         0.4909 
      3 O         -82.3301   28.1342  -71.3412 O.2       0 UNK        -0.5240 
      4 N         -80.6775   28.5878  -72.8123 N.am      1 UNK        -0.4739 
      5 CA        -81.2301   27.8604  -73.9586 C.3       1 UNK         0.0864 
      6 C6        -80.5411   28.2127  -75.3104 C.3       11 UNK        -0.0881 
      7 S7        -80.1644   29.9851  -75.5489 S.3       11 UNK        -0.2682 
      8 C8        -78.3404   29.9918  -75.4529 C.3       11 UNK         0.0289 
      9 C9        -77.8474   29.7153  -74.0393 C.ar      11 UNK        -0.0687 
     10 C10       -77.5607   28.4085  -73.6332 C.ar      11 UNK        -0.0823 
     11 C11       -77.1957   28.1392  -72.3127 C.ar      11 UNK        -0.0830 
     12 C12       -77.0632   29.1949  -71.4070 C.ar      11 UNK        -0.1021 
     13 C13       -77.3076   30.5114  -71.8104 C.ar      11 UNK        -0.0753 
     14 C14       -77.7067   30.7643  -73.1261 C.ar      11 UNK        -0.0933 
     15 C15       -77.1980   31.6561  -70.8133 C.3       11 UNK         0.0166 
     16 S16       -75.6211   32.5540  -70.9622 S.3       11 UNK        -0.2615 
     17 C17       -74.4287   31.3251  -70.3242 C.3       11 UNK        -0.0865 
     18 CA        -73.3933   30.8685  -71.3851 C.3       10 UNK         0.0862 
     19 C         -72.3808   29.8664  -70.7587 C.2       10 UNK         0.5551 
     20 N         -72.3859   28.5953  -71.1384 N.am      10 UNK        -0.7319 
     21 O         -71.5770   30.2546  -69.9145 O.2       10 UNK        -0.5018 
     22 N         -74.0353   30.4150  -72.6319 N.am      10 UNK        -0.4509 
     23 C         -73.4054   30.2982  -73.8058 C.2       10 UNK         0.4899 
     24 O         -72.2034   30.5195  -73.9738 O.2       10 UNK        -0.4839 
     25 CA        -74.2745   29.9120  -75.0065 C.3       9 UNK         0.0222 
     26 CB        -74.9039   31.1634  -75.6408 C.3       9 UNK        -0.1966 
     27 N         -73.4366   29.2442  -75.9980 N.am      9 UNK        -0.4218 
     28 C         -73.7142   28.0827  -76.5964 C.2       9 UNK         0.5020 
     29 O         -74.7682   27.4623  -76.4260 O.2       9 UNK        -0.5274 
     30 CA        -72.6383   27.5315  -77.5498 C.3       8 UNK         0.0270 
     31 CB        -71.2141   27.6396  -76.9680 C.3       8 UNK        -0.1976 
     32 N         -72.9230   26.1287  -77.8439 N.am      8 UNK        -0.4313 
     33 C         -72.9584   25.5691  -79.0590 C.2       8 UNK         0.5041 
     34 O         -72.6810   26.1794  -80.0933 O.2       8 UNK        -0.5577 
     35 CA        -73.4147   24.0959  -79.1565 C.3       7 UNK         0.0284 
     36 CB        -72.6397   23.3071  -80.2347 C.3       7 UNK        -0.1958 
     37 N         -73.4348   23.3788  -77.8716 N.am      7 UNK        -0.4454 
     38 C         -72.3853   23.0135  -77.1202 C.2       7 UNK         0.5089 
     39 O         -71.2087   23.1928  -77.4377 O.2       7 UNK        -0.5125 
     40 CA        -72.7381   22.3766  -75.7587 C.3       6 UNK         0.0408 
     41 CB        -71.4958   22.1248  -74.8780 C.3       6 UNK        -0.1791 
     42 N         -73.7486   23.1452  -75.0126 N.am      6 UNK        -0.4762 
     43 C         -73.6668   24.4372  -74.6556 C.2       6 UNK         0.5007 
     44 O         -72.7302   25.1719  -74.9689 O.2       6 UNK        -0.5032 
     45 CA        -74.8702   25.0239  -73.8964 C.3       5 UNK         0.0783 
     46 C46       -74.4868   26.2641  -73.0359 C.3       11 UNK        -0.0857 
     47 S47       -75.3125   26.2872  -71.4141 S.3       11 UNK        -0.2512 
     48 C48       -77.0296   26.7008  -71.8455 C.3       11 UNK         0.0225 
     49 N         -75.8639   25.3733  -74.9104 N.am      5 UNK        -0.4615 
     50 C         -76.8350   24.5698  -75.3522 C.2       4 UNK         0.5053 
     51 O         -77.0663   23.4507  -74.8899 O.2       4 UNK        -0.5105 
     52 CA        -77.6274   25.0808  -76.5601 C.3       4 UNK         0.0263 
     53 CB        -76.8062   24.9058  -77.8534 C.3       4 UNK        -0.1981 
     54 N         -78.8913   24.3550  -76.6595 N.am      4 UNK        -0.4224 
     55 C         -79.9207   24.6959  -77.4424 C.2       3 UNK         0.4895 
     56 O         -79.9337   25.6952  -78.1617 O.2       3 UNK        -0.5091 
     57 CA        -81.1658   23.7966  -77.4037 C.3       3 UNK         0.0250 
     58 CB        -80.8586   22.3233  -77.7490 C.3       3 UNK        -0.1996 
     59 N         -81.8939   23.9586  -76.1421 N.am      3 UNK        -0.4254 
     60 C         -81.5490   23.5279  -74.9200 C.2       2 UNK         0.5004 
     61 O         -80.6175   22.7554  -74.6885 O.2       2 UNK        -0.5226 
     62 CA        -82.3565   24.1536  -73.7664 C.3       2 UNK         0.0269 
     63 CB        -81.9686   23.5985  -72.3783 C.3       2 UNK        -0.1926 
     64 N         -82.2547   25.6228  -73.8012 N.am      2 UNK        -0.4687 
     65 C         -81.1244   26.3433  -73.7090 C.2       1 UNK         0.5165 
     66 O         -80.0128   25.8622  -73.4785 O.2       1 UNK        -0.5079 
     67 H67       -79.7364   28.8054  -70.0693 H         1 UNK         0.0900 
     68 H68       -81.1842   29.7654  -69.7499 H         1 UNK         0.0900 
     69 H69       -80.0194   30.3152  -70.9501 H         1 UNK         0.0900 
     70 H70       -79.7734   29.0145  -72.9687 H         1 UNK         0.2959 
     71 H71       -82.2838   28.1369  -74.0382 H         1 UNK         0.1079 
     72 H72       -79.6226   27.6436  -75.4544 H         1 UNK         0.0837 
     73 H73       -81.1870   27.9021  -76.1337 H         1 UNK         0.0837 
     74 H74       -77.9272   29.2636  -76.1531 H         1 UNK         0.0685 
     75 H75       -77.9804   30.9671  -75.7830 H         1 UNK         0.0685 
     76 H76       -77.6698   27.5904  -74.3298 H         1 UNK         0.1434 
     77 H77       -76.7930   28.9835  -70.3813 H         1 UNK         0.1329 
     78 H78       -77.9257   31.7778  -73.4341 H         1 UNK         0.1335 
     79 H79       -78.0161   32.3589  -70.9783 H         1 UNK         0.0680 
     80 H80       -77.3163   31.2921  -69.7914 H         1 UNK         0.0680 
     81 H81       -74.9606   30.4652  -69.9156 H         1 UNK         0.1032 
     82 H82       -73.9160   31.7813  -69.4749 H         1 UNK         0.1032 
     83 H83       -72.8057   31.7507  -71.6475 H         1 UNK         0.0461 
     84 H84       -73.0614   28.2712  -71.8100 H         1 UNK         0.3453 
     85 H85       -71.7266   27.9538  -70.7278 H         1 UNK         0.3453 
     86 H86       -75.0299   30.2400  -72.5776 H         1 UNK         0.2984 
     87 H87       -75.0658   29.2465  -74.6615 H         1 UNK         0.0554 
     88 H88       -75.5297   30.9005  -76.4934 H         1 UNK         0.0847 
     89 H89       -74.1448   31.8654  -75.9880 H         1 UNK         0.0847 
     90 H90       -75.5328   31.6935  -74.9247 H         1 UNK         0.0847 
     91 H91       -72.5209   29.6555  -76.1224 H         1 UNK         0.3141 
     92 H92       -72.6933   28.1258  -78.4640 H         1 UNK         0.0743 
     93 H93       -71.1426   27.1649  -75.9883 H         1 UNK         0.0784 
     94 H94       -70.4860   27.1582  -77.6213 H         1 UNK         0.0784 
     95 H95       -70.9002   28.6777  -76.8569 H         1 UNK         0.0784 
     96 H96       -73.1572   25.5708  -77.0312 H         1 UNK         0.3213 
     97 H97       -74.4534   24.1380  -79.4865 H         1 UNK         0.0855 
     98 H98       -72.7859   23.7482  -81.2215 H         1 UNK         0.0814 
     99 H99       -72.9781   22.2727  -80.2920 H         1 UNK         0.0814 
    100 H100      -71.5665   23.3008  -80.0429 H         1 UNK         0.0814 
    101 H101      -74.3524   23.1751  -77.5015 H         1 UNK         0.3105 
    102 H102      -73.1858   21.4068  -75.9807 H         1 UNK         0.0547 
    103 H103      -70.7835   21.4722  -75.3843 H         1 UNK         0.0837 
    104 H104      -70.9732   23.0519  -74.6396 H         1 UNK         0.0837 
    105 H105      -71.7654   21.6410  -73.9394 H         1 UNK         0.0837 
    106 H106      -74.5895   22.6385  -74.7644 H         1 UNK         0.3020 
    107 H107      -75.2555   24.2392  -73.2409 H         1 UNK         0.1245 
    108 H108      -74.6835   27.1980  -73.5621 H         1 UNK         0.0781 
    109 H109      -73.4197   26.2805  -72.8068 H         1 UNK         0.0781 
    110 H110      -77.6557   26.5458  -70.9658 H         1 UNK         0.0836 
    111 H111      -77.3966   25.9982  -72.5946 H         1 UNK         0.0836 
    112 H112      -75.6561   26.2249  -75.4322 H         1 UNK         0.3022 
    113 H113      -77.8430   26.1399  -76.4055 H         1 UNK         0.0747 
    114 H114      -75.8458   25.4147  -77.7799 H         1 UNK         0.0793 
    115 H115      -76.6124   23.8539  -78.0648 H         1 UNK         0.0793 
    116 H116      -77.3180   25.3300  -78.7170 H         1 UNK         0.0793 
    117 H117      -78.9892   23.5709  -76.0199 H         1 UNK         0.3047 
    118 H118      -81.8400   24.1656  -78.1787 H         1 UNK         0.0822 
    119 H119      -81.7665   21.7202  -77.7450 H         1 UNK         0.0807 
    120 H120      -80.1516   21.8650  -77.0576 H         1 UNK         0.0807 
    121 H121      -80.4236   22.2461  -78.7461 H         1 UNK         0.0807 
    122 H122      -82.6696   24.6047  -76.1925 H         1 UNK         0.2946 
    123 H123      -83.4032   23.8972  -73.9404 H         1 UNK         0.1144 
    124 H124      -82.1367   22.5219  -72.3313 H         1 UNK         0.0793 
    125 H125      -82.5645   24.0555  -71.5884 H         1 UNK         0.0793 
    126 H126      -80.9171   23.7701  -72.1457 H         1 UNK         0.0793 
    127 H127      -83.1215   26.1144  -73.9729 H         1 UNK         0.2896 
@<TRIPOS>BOND
     1    1    2 1    
     2    1   67 1    
     3    1   68 1    
     4    1   69 1    
     5    2    3 2    
     6    2    4 am   BACKBONE|DICT|INTERRES
     7    4    5 1    
     8    4   70 1    
     9    5    6 1    
    10    5   65 1    
    11    5   71 1    
    12    6    7 1    
    13    6   72 1    
    14    6   73 1    
    15    7    8 1    
    16    8    9 1    
    17    8   74 1    
    18    8   75 1    
    19    9   10 ar   
    20    9   14 ar   
    21   10   11 ar   
    22   10   76 1    
    23   11   12 ar   
    24   11   48 1    
    25   12   13 ar   
    26   12   77 1    
    27   13   14 ar   
    28   13   15 1    
    29   14   78 1    
    30   15   16 1    
    31   15   79 1    
    32   15   80 1    
    33   16   17 1    
    34   17   18 1    
    35   17   81 1    
    36   17   82 1    
    37   18   19 1    
    38   18   22 1    
    39   18   83 1    
    40   19   20 am   BACKBONE|DICT|INTERRES
    41   19   21 2    
    42   20   84 1    
    43   20   85 1    
    44   22   23 am   BACKBONE|DICT|INTERRES
    45   22   86 1    
    46   23   24 2    
    47   23   25 1    
    48   25   26 1    
    49   25   27 1    
    50   25   87 1    
    51   26   88 1    
    52   26   89 1    
    53   26   90 1    
    54   27   28 am   BACKBONE|DICT|INTERRES
    55   27   91 1    
    56   28   29 2    
    57   28   30 1    
    58   30   31 1    
    59   30   32 1    
    60   30   92 1    
    61   31   93 1    
    62   31   94 1    
    63   31   95 1    
    64   32   33 am   BACKBONE|DICT|INTERRES
    65   32   96 1    
    66   33   34 2    
    67   33   35 1    
    68   35   36 1    
    69   35   37 1    
    70   35   97 1    
    71   36   98 1    
    72   36   99 1    
    73   36  100 1    
    74   37   38 am   BACKBONE|DICT|INTERRES
    75   37  101 1    
    76   38   39 2    
    77   38   40 1    
    78   40   41 1    
    79   40   42 1    
    80   40  102 1    
    81   41  103 1    
    82   41  104 1    
    83   41  105 1    
    84   42   43 am   BACKBONE|DICT|INTERRES
    85   42  106 1    
    86   43   44 2    
    87   43   45 1    
    88   45   46 1    
    89   45   49 1    
    90   45  107 1    
    91   46   47 1    
    92   46  108 1    
    93   46  109 1    
    94   47   48 1    
    95   48  110 1    
    96   48  111 1    
    97   49   50 am   BACKBONE|DICT|INTERRES
    98   49  112 1    
    99   50   51 2    
   100   50   52 1    
   101   52   53 1    
   102   52   54 1    
   103   52  113 1    
   104   53  114 1    
   105   53  115 1    
   106   53  116 1    
   107   54   55 am   BACKBONE|DICT|INTERRES
   108   54  117 1    
   109   55   56 2    
   110   55   57 1    
   111   57   58 1    
   112   57   59 1    
   113   57  118 1    
   114   58  119 1    
   115   58  120 1    
   116   58  121 1    
   117   59   60 am   BACKBONE|DICT|INTERRES
   118   59  122 1    
   119   60   61 2    
   120   60   62 1    
   121   62   63 1    
   122   62   64 1    
   123   62  123 1    
   124   63  124 1    
   125   63  125 1    
   126   63  126 1    
   127   64   65 am   BACKBONE|DICT|INTERRES
   128   64  127 1    
   129   65   66 2    
@<TRIPOS>SUBSTRUCTURE
     1 UNK         1 GROUP             0       ****    0 ROOT    
