@<TRIPOS>MOLECULE
3R135
127   129    1
SMALL
USER_CHARGES


@<TRIPOS>ATOM
      1 CA        -83.3933   23.7133  -71.2576 C.3       0 UNK        -0.1998 
      2 C         -83.0589   25.1628  -71.5769 C.2       0 UNK         0.4909 
      3 O         -83.9027   26.0414  -71.3971 O.2       0 UNK        -0.5240 
      4 N         -81.8354   25.4184  -72.0488 N.am      1 UNK        -0.4739 
      5 CA        -81.3315   26.7311  -72.4441 C.3       1 UNK         0.0864 
      6 C6        -80.7508   27.5018  -71.2300 C.3       11 UNK        -0.0881 
      7 S7        -80.5284   29.2882  -71.5439 S.3       11 UNK        -0.2682 
      8 C8        -78.8623   29.5963  -70.8706 C.3       11 UNK         0.0289 
      9 C9        -77.7670   28.9835  -71.7320 C.ar      11 UNK        -0.0687 
     10 C10       -77.1799   27.7689  -71.3679 C.ar      11 UNK        -0.0823 
     11 C11       -76.1854   27.1929  -72.1620 C.ar      11 UNK        -0.0830 
     12 C12       -75.7685   27.8465  -73.3256 C.ar      11 UNK        -0.1021 
     13 C13       -76.3373   29.0706  -73.6931 C.ar      11 UNK        -0.0753 
     14 C14       -77.3332   29.6355  -72.8898 C.ar      11 UNK        -0.0933 
     15 C15       -75.9134   29.7597  -74.9827 C.3       11 UNK         0.0166 
     16 S16       -74.1772   30.2901  -74.9546 S.3       11 UNK        -0.2615 
     17 C17       -74.1817   31.5103  -73.5949 C.3       11 UNK        -0.0865 
     18 CA        -72.8828   32.3605  -73.5609 C.3       10 UNK         0.0862 
     19 C         -72.9469   33.4515  -72.4531 C.2       10 UNK         0.5551 
     20 N         -72.0276   33.4838  -71.4960 N.am      10 UNK        -0.7319 
     21 O         -73.8449   34.2898  -72.4685 O.2       10 UNK        -0.5018 
     22 N         -71.6890   31.5014  -73.5119 N.am      10 UNK        -0.4509 
     23 C         -70.4777   31.8181  -73.9860 C.2       10 UNK         0.4899 
     24 O         -70.1808   32.9273  -74.4301 O.2       10 UNK        -0.4839 
     25 CA        -69.4163   30.6983  -73.9816 C.3       9 UNK         0.0222 
     26 CB        -68.4603   30.8705  -72.7898 C.3       9 UNK        -0.1966 
     27 N         -69.9904   29.3458  -73.9518 N.am      9 UNK        -0.4218 
     28 C         -70.7031   28.7940  -74.9450 C.2       9 UNK         0.5020 
     29 O         -70.8679   29.3263  -76.0464 O.2       9 UNK        -0.5274 
     30 CA        -71.3625   27.4365  -74.6530 C.3       8 UNK         0.0270 
     31 CB        -72.0028   27.3672  -73.2489 C.3       8 UNK        -0.1976 
     32 N         -72.3731   27.1844  -75.6786 N.am      8 UNK        -0.4313 
     33 C         -72.8406   25.9865  -76.0405 C.2       8 UNK         0.5041 
     34 O         -72.4856   24.9335  -75.5066 O.2       8 UNK        -0.5577 
     35 CA        -73.8715   25.9330  -77.1827 C.3       7 UNK         0.0284 
     36 CB        -73.9395   27.2099  -78.0462 C.3       7 UNK        -0.1958 
     37 N         -73.5429   24.7811  -78.0249 N.am      7 UNK        -0.4454 
     38 C         -74.3480   23.8963  -78.6297 C.2       7 UNK         0.5089 
     39 O         -73.8741   22.9835  -79.3067 O.2       7 UNK        -0.5125 
     40 CA        -75.8866   23.9963  -78.4746 C.3       6 UNK         0.0408 
     41 CB        -76.6399   22.9953  -79.3738 C.3       6 UNK        -0.1791 
     42 N         -76.3712   23.8567  -77.0967 N.am      6 UNK        -0.4762 
     43 C         -76.0060   22.9584  -76.1684 C.2       6 UNK         0.5007 
     44 O         -75.2166   22.0331  -76.3608 O.2       6 UNK        -0.5032 
     45 CA        -76.6443   23.1294  -74.7772 C.3       5 UNK         0.0783 
     46 C46       -76.1078   24.4019  -74.0797 C.3       11 UNK        -0.0857 
     47 S47       -76.5710   24.4580  -72.3202 S.3       11 UNK        -0.2512 
     48 C48       -75.5685   25.8650  -71.7510 C.3       11 UNK         0.0225 
     49 N         -78.1068   23.1188  -74.8591 N.am      5 UNK        -0.4615 
     50 C         -78.8432   22.0431  -75.1699 C.2       4 UNK         0.5053 
     51 O         -78.3759   20.9210  -75.3644 O.2       4 UNK        -0.5105 
     52 CA        -80.3588   22.2559  -75.2920 C.3       4 UNK         0.0263 
     53 CB        -81.0327   22.2024  -73.9112 C.3       4 UNK        -0.1981 
     54 N         -80.6624   23.5280  -75.9496 N.am      4 UNK        -0.4224 
     55 C         -80.6362   23.7076  -77.2785 C.2       3 UNK         0.4895 
     56 O         -80.4307   22.8021  -78.0872 O.2       3 UNK        -0.5091 
     57 CA        -80.8867   25.1312  -77.8074 C.3       3 UNK         0.0250 
     58 CB        -82.3616   25.3033  -78.2053 C.3       3 UNK        -0.1996 
     59 N         -80.5185   26.1851  -76.8596 N.am      3 UNK        -0.4254 
     60 C         -79.2610   26.4909  -76.5128 C.2       2 UNK         0.5004 
     61 O         -78.2637   25.9221  -76.9530 O.2       2 UNK        -0.5226 
     62 CA        -79.0886   27.5960  -75.4626 C.3       2 UNK         0.0269 
     63 CB        -79.1276   28.9774  -76.1358 C.3       2 UNK        -0.1926 
     64 N         -80.0713   27.5594  -74.3749 N.am      2 UNK        -0.4687 
     65 C         -80.3078   26.5126  -73.5732 C.2       1 UNK         0.5165 
     66 O         -79.7777   25.4055  -73.7176 O.2       1 UNK        -0.5079 
     67 H67       -82.5149   23.0706  -71.3139 H         1 UNK         0.0900 
     68 H68       -84.1379   23.3367  -71.9585 H         1 UNK         0.0900 
     69 H69       -83.8023   23.6353  -70.2504 H         1 UNK         0.0900 
     70 H70       -81.1790   24.6686  -72.2269 H         1 UNK         0.2959 
     71 H71       -82.1625   27.3016  -72.8659 H         1 UNK         0.1079 
     72 H72       -81.4349   27.4220  -70.3837 H         1 UNK         0.0837 
     73 H73       -79.8209   27.0432  -70.8942 H         1 UNK         0.0837 
     74 H74       -78.7065   30.6739  -70.8027 H         1 UNK         0.0685 
     75 H75       -78.8084   29.2182  -69.8484 H         1 UNK         0.0685 
     76 H76       -77.5021   27.2624  -70.4686 H         1 UNK         0.1434 
     77 H77       -75.0045   27.4036  -73.9492 H         1 UNK         0.1329 
     78 H78       -77.7872   30.5753  -73.1726 H         1 UNK         0.1335 
     79 H79       -76.0520   29.0683  -75.8147 H         1 UNK         0.0680 
     80 H80       -76.5444   30.6245  -75.1929 H         1 UNK         0.0680 
     81 H81       -74.3192   30.9801  -72.6505 H         1 UNK         0.1032 
     82 H82       -75.0549   32.1547  -73.7144 H         1 UNK         0.1032 
     83 H83       -72.8418   32.9111  -74.5030 H         1 UNK         0.0461 
     84 H84       -72.0753   34.1974  -70.7858 H         1 UNK         0.3453 
     85 H85       -71.2835   32.8054  -71.4843 H         1 UNK         0.3453 
     86 H86       -71.8378   30.5670  -73.1648 H         1 UNK         0.2984 
     87 H87       -68.8357   30.7961  -74.9013 H         1 UNK         0.0554 
     88 H88       -67.6529   30.1386  -72.8184 H         1 UNK         0.0847 
     89 H89       -68.9775   30.7645  -71.8354 H         1 UNK         0.0847 
     90 H90       -67.9975   31.8586  -72.8007 H         1 UNK         0.0847 
     91 H91       -69.8857   28.8295  -73.0900 H         1 UNK         0.3141 
     92 H92       -70.5824   26.6763  -74.7310 H         1 UNK         0.0743 
     93 H93       -71.2587   27.4657  -72.4585 H         1 UNK         0.0784 
     94 H94       -72.7470   28.1512  -73.1046 H         1 UNK         0.0784 
     95 H95       -72.4943   26.4082  -73.0905 H         1 UNK         0.0784 
     96 H96       -72.6327   28.0108  -76.2048 H         1 UNK         0.3213 
     97 H97       -74.8370   25.8082  -76.6977 H         1 UNK         0.0855 
     98 H98       -74.2593   28.0726  -77.4604 H         1 UNK         0.0814 
     99 H99       -74.6600   27.0990  -78.8565 H         1 UNK         0.0814 
    100 H100      -72.9742   27.4484  -78.4949 H         1 UNK         0.0814 
    101 H101      -72.5502   24.6025  -78.0848 H         1 UNK         0.3105 
    102 H102      -76.1656   24.9994  -78.7993 H         1 UNK         0.0547 
    103 H103      -76.3547   23.1140  -80.4198 H         1 UNK         0.0837 
    104 H104      -76.4295   21.9632  -79.0908 H         1 UNK         0.0837 
    105 H105      -77.7182   23.1441  -79.3133 H         1 UNK         0.0837 
    106 H106      -77.0615   24.5606  -76.8368 H         1 UNK         0.3020 
    107 H107      -76.3390   22.2646  -74.1829 H         1 UNK         0.1245 
    108 H108      -76.4834   25.3013  -74.5711 H         1 UNK         0.0781 
    109 H109      -75.0182   24.4419  -74.1413 H         1 UNK         0.0781 
    110 H110      -74.5512   25.7746  -72.1317 H         1 UNK         0.0836 
    111 H111      -75.4871   25.8203  -70.6640 H         1 UNK         0.0836 
    112 H112      -78.5787   23.9898  -74.6423 H         1 UNK         0.3022 
    113 H113      -80.7674   21.4414  -75.8945 H         1 UNK         0.0747 
    114 H114      -82.1044   22.3882  -73.9830 H         1 UNK         0.0793 
    115 H115      -80.9039   21.2185  -73.4583 H         1 UNK         0.0793 
    116 H116      -80.6064   22.9304  -73.2218 H         1 UNK         0.0793 
    117 H117      -80.7751   24.3345  -75.3497 H         1 UNK         0.3047 
    118 H118      -80.2739   25.2562  -78.7031 H         1 UNK         0.0822 
    119 H119      -82.5393   26.2780  -78.6603 H         1 UNK         0.0807 
    120 H120      -83.0268   25.2057  -77.3464 H         1 UNK         0.0807 
    121 H121      -82.6593   24.5488  -78.9350 H         1 UNK         0.0807 
    122 H122      -81.2717   26.7100  -76.4392 H         1 UNK         0.2946 
    123 H123      -78.1068   27.4487  -75.0114 H         1 UNK         0.1144 
    124 H124      -78.9344   29.7759  -75.4201 H         1 UNK         0.0793 
    125 H125      -80.0952   29.1744  -76.5988 H         1 UNK         0.0793 
    126 H126      -78.3715   29.0525  -76.9186 H         1 UNK         0.0793 
    127 H127      -80.5341   28.4322  -74.1627 H         1 UNK         0.2896 
@<TRIPOS>BOND
     1    1    2 1    
     2    1   67 1    
     3    1   68 1    
     4    1   69 1    
     5    2    3 2    
     6    2    4 am   BACKBONE|DICT|INTERRES
     7    4    5 1    
     8    4   70 1    
     9    5    6 1    
    10    5   65 1    
    11    5   71 1    
    12    6    7 1    
    13    6   72 1    
    14    6   73 1    
    15    7    8 1    
    16    8    9 1    
    17    8   74 1    
    18    8   75 1    
    19    9   10 ar   
    20    9   14 ar   
    21   10   11 ar   
    22   10   76 1    
    23   11   12 ar   
    24   11   48 1    
    25   12   13 ar   
    26   12   77 1    
    27   13   14 ar   
    28   13   15 1    
    29   14   78 1    
    30   15   16 1    
    31   15   79 1    
    32   15   80 1    
    33   16   17 1    
    34   17   18 1    
    35   17   81 1    
    36   17   82 1    
    37   18   19 1    
    38   18   22 1    
    39   18   83 1    
    40   19   20 am   BACKBONE|DICT|INTERRES
    41   19   21 2    
    42   20   84 1    
    43   20   85 1    
    44   22   23 am   BACKBONE|DICT|INTERRES
    45   22   86 1    
    46   23   24 2    
    47   23   25 1    
    48   25   26 1    
    49   25   27 1    
    50   25   87 1    
    51   26   88 1    
    52   26   89 1    
    53   26   90 1    
    54   27   28 am   BACKBONE|DICT|INTERRES
    55   27   91 1    
    56   28   29 2    
    57   28   30 1    
    58   30   31 1    
    59   30   32 1    
    60   30   92 1    
    61   31   93 1    
    62   31   94 1    
    63   31   95 1    
    64   32   33 am   BACKBONE|DICT|INTERRES
    65   32   96 1    
    66   33   34 2    
    67   33   35 1    
    68   35   36 1    
    69   35   37 1    
    70   35   97 1    
    71   36   98 1    
    72   36   99 1    
    73   36  100 1    
    74   37   38 am   BACKBONE|DICT|INTERRES
    75   37  101 1    
    76   38   39 2    
    77   38   40 1    
    78   40   41 1    
    79   40   42 1    
    80   40  102 1    
    81   41  103 1    
    82   41  104 1    
    83   41  105 1    
    84   42   43 am   BACKBONE|DICT|INTERRES
    85   42  106 1    
    86   43   44 2    
    87   43   45 1    
    88   45   46 1    
    89   45   49 1    
    90   45  107 1    
    91   46   47 1    
    92   46  108 1    
    93   46  109 1    
    94   47   48 1    
    95   48  110 1    
    96   48  111 1    
    97   49   50 am   BACKBONE|DICT|INTERRES
    98   49  112 1    
    99   50   51 2    
   100   50   52 1    
   101   52   53 1    
   102   52   54 1    
   103   52  113 1    
   104   53  114 1    
   105   53  115 1    
   106   53  116 1    
   107   54   55 am   BACKBONE|DICT|INTERRES
   108   54  117 1    
   109   55   56 2    
   110   55   57 1    
   111   57   58 1    
   112   57   59 1    
   113   57  118 1    
   114   58  119 1    
   115   58  120 1    
   116   58  121 1    
   117   59   60 am   BACKBONE|DICT|INTERRES
   118   59  122 1    
   119   60   61 2    
   120   60   62 1    
   121   62   63 1    
   122   62   64 1    
   123   62  123 1    
   124   63  124 1    
   125   63  125 1    
   126   63  126 1    
   127   64   65 am   BACKBONE|DICT|INTERRES
   128   64  127 1    
   129   65   66 2    
@<TRIPOS>SUBSTRUCTURE
     1 UNK         1 GROUP             0       ****    0 ROOT    
