@<TRIPOS>MOLECULE
3R135
127   129    1
SMALL
USER_CHARGES


@<TRIPOS>ATOM
      1 CA        -81.2855   21.3890  -71.6240 C.3       0 UNK        -0.1998 
      2 C         -81.0623   22.7118  -72.3402 C.2       0 UNK         0.4909 
      3 O         -80.5902   22.7144  -73.4781 O.2       0 UNK        -0.5240 
      4 N         -81.4012   23.8323  -71.6836 N.am      1 UNK        -0.4739 
      5 CA        -81.2629   25.2115  -72.1814 C.3       1 UNK         0.0864 
      6 C6        -79.7711   25.6301  -72.3591 C.3       11 UNK        -0.0881 
      7 S7        -78.8144   25.5778  -70.8055 S.3       11 UNK        -0.2682 
      8 C8        -78.8604   27.3182  -70.2587 C.3       11 UNK         0.0289 
      9 C9        -78.0260   28.2295  -71.1502 C.ar      11 UNK        -0.0687 
     10 C10       -78.6357   28.9639  -72.1720 C.ar      11 UNK        -0.0823 
     11 C11       -77.8753   29.7741  -73.0180 C.ar      11 UNK        -0.0830 
     12 C12       -76.4980   29.8824  -72.8085 C.ar      11 UNK        -0.1021 
     13 C13       -75.8802   29.1845  -71.7665 C.ar      11 UNK        -0.0753 
     14 C14       -76.6471   28.3497  -70.9469 C.ar      11 UNK        -0.0933 
     15 C15       -74.3824   29.3265  -71.5462 C.3       11 UNK         0.0166 
     16 S16       -73.9467   31.0066  -71.0043 S.3       11 UNK        -0.2615 
     17 C17       -72.1237   30.9467  -71.0513 C.3       11 UNK        -0.0865 
     18 CA        -71.5617   31.4352  -72.4122 C.3       10 UNK         0.0862 
     19 C         -70.0646   31.8231  -72.2924 C.2       10 UNK         0.5551 
     20 N         -69.7737   33.0877  -72.0211 N.am      10 UNK        -0.7319 
     21 O         -69.1697   30.9868  -72.4012 O.2       10 UNK        -0.5018 
     22 N         -71.7516   30.4196  -73.4541 N.am      10 UNK        -0.4509 
     23 C         -71.9172   30.6610  -74.7562 C.2       10 UNK         0.4899 
     24 O         -72.0278   31.7936  -75.2272 O.2       10 UNK        -0.4839 
     25 CA        -71.9760   29.4533  -75.7150 C.3       9 UNK         0.0222 
     26 CB        -70.6179   29.2481  -76.4131 C.3       9 UNK        -0.1966 
     27 N         -72.4682   28.1834  -75.1542 N.am      9 UNK        -0.4218 
     28 C         -71.9258   27.4047  -74.2046 C.2       9 UNK         0.5020 
     29 O         -70.9404   27.7187  -73.5366 O.2       9 UNK        -0.5274 
     30 CA        -72.5915   26.0424  -73.9477 C.3       8 UNK         0.0270 
     31 CB        -73.7552   26.1706  -72.9528 C.3       8 UNK        -0.1976 
     32 N         -73.0702   25.3965  -75.1695 N.am      8 UNK        -0.4313 
     33 C         -72.2870   24.8976  -76.1358 C.2       8 UNK         0.5041 
     34 O         -71.0559   24.9208  -76.1065 O.2       8 UNK        -0.5577 
     35 CA        -73.0004   24.2608  -77.3380 C.3       7 UNK         0.0284 
     36 CB        -73.4909   22.8430  -76.9985 C.3       7 UNK        -0.1958 
     37 N         -74.1276   25.0790  -77.7861 N.am      7 UNK        -0.4454 
     38 C         -74.0132   26.1492  -78.5840 C.2       7 UNK         0.5089 
     39 O         -72.9513   26.5228  -79.0827 O.2       7 UNK        -0.5125 
     40 CA        -75.3002   26.9414  -78.8815 C.3       6 UNK         0.0408 
     41 CB        -75.9442   26.4464  -80.1860 C.3       6 UNK        -0.1791 
     42 N         -76.2928   26.8877  -77.8042 N.am      6 UNK        -0.4762 
     43 C         -76.1246   27.4249  -76.5864 C.2       6 UNK         0.5007 
     44 O         -75.0953   27.9979  -76.2281 O.2       6 UNK        -0.5032 
     45 CA        -77.2781   27.2221  -75.5779 C.3       5 UNK         0.0783 
     46 C46       -78.4490   28.2147  -75.8135 C.3       11 UNK        -0.0857 
     47 S47       -77.9704   29.9801  -75.7896 S.3       11 UNK        -0.2512 
     48 C48       -78.5443   30.5360  -74.1528 C.3       11 UNK         0.0225 
     49 N         -77.7593   25.8317  -75.5651 N.am      5 UNK        -0.4615 
     50 C         -76.9990   24.7424  -75.3719 C.2       4 UNK         0.5053 
     51 O         -75.7886   24.7945  -75.1630 O.2       4 UNK        -0.5105 
     52 CA        -77.6650   23.3576  -75.4463 C.3       4 UNK         0.0263 
     53 CB        -77.4706   22.5900  -74.1277 C.3       4 UNK        -0.1981 
     54 N         -79.0891   23.3965  -75.7976 N.am      4 UNK        -0.4224 
     55 C         -79.5501   23.5601  -77.0473 C.2       3 UNK         0.4895 
     56 O         -78.8215   23.7252  -78.0261 O.2       3 UNK        -0.5091 
     57 CA        -81.0760   23.5818  -77.2298 C.3       3 UNK         0.0250 
     58 CB        -81.7003   22.2109  -76.9198 C.3       3 UNK        -0.1996 
     59 N         -81.7044   24.6133  -76.4041 N.am      3 UNK        -0.4254 
     60 C         -81.6194   25.9321  -76.6251 C.2       2 UNK         0.5004 
     61 O         -81.0459   26.4248  -77.5955 O.2       2 UNK        -0.5226 
     62 CA        -82.2240   26.8691  -75.5628 C.3       2 UNK         0.0269 
     63 CB        -83.7565   26.9744  -75.6957 C.3       2 UNK        -0.1926 
     64 N         -81.7922   26.5324  -74.1965 N.am      2 UNK        -0.4687 
     65 C         -82.1053   25.4538  -73.4619 C.2       1 UNK         0.5165 
     66 O         -82.9908   24.6579  -73.7861 O.2       1 UNK        -0.5079 
     67 H67       -80.3423   20.8514  -71.5316 H         1 UNK         0.0900 
     68 H68       -81.9777   20.7688  -72.1928 H         1 UNK         0.0900 
     69 H69       -81.6963   21.5298  -70.6245 H         1 UNK         0.0900 
     70 H70       -81.8077   23.7517  -70.7624 H         1 UNK         0.2959 
     71 H71       -81.7054   25.8561  -71.4203 H         1 UNK         0.1079 
     72 H72       -79.2770   24.9780  -73.0781 H         1 UNK         0.0837 
     73 H73       -79.6756   26.6268  -72.7780 H         1 UNK         0.0837 
     74 H74       -78.4872   27.3722  -69.2349 H         1 UNK         0.0685 
     75 H75       -79.8961   27.6592  -70.2204 H         1 UNK         0.0685 
     76 H76       -79.7048   28.8961  -72.3160 H         1 UNK         0.1434 
     77 H77       -75.9048   30.5151  -73.4552 H         1 UNK         0.1329 
     78 H78       -76.1740   27.7922  -70.1501 H         1 UNK         0.1335 
     79 H79       -73.8719   29.0991  -72.4808 H         1 UNK         0.0680 
     80 H80       -74.0257   28.6095  -70.8055 H         1 UNK         0.0680 
     81 H81       -71.7714   31.5866  -70.2396 H         1 UNK         0.1032 
     82 H82       -71.7688   29.9420  -70.8133 H         1 UNK         0.1032 
     83 H83       -72.1110   32.3343  -72.7002 H         1 UNK         0.0461 
     84 H84       -68.8075   33.3589  -71.9237 H         1 UNK         0.3453 
     85 H85       -70.5003   33.7795  -71.9198 H         1 UNK         0.3453 
     86 H86       -71.5302   29.4627  -73.1950 H         1 UNK         0.2984 
     87 H87       -72.7008   29.7177  -76.4866 H         1 UNK         0.0554 
     88 H88       -70.3002   30.1574  -76.9250 H         1 UNK         0.0847 
     89 H89       -70.6735   28.4572  -77.1616 H         1 UNK         0.0847 
     90 H90       -69.8326   28.9847  -75.7037 H         1 UNK         0.0847 
     91 H91       -73.3471   27.8723  -75.5651 H         1 UNK         0.3141 
     92 H92       -71.8388   25.3882  -73.5025 H         1 UNK         0.0743 
     93 H93       -73.4112   26.5830  -72.0043 H         1 UNK         0.0784 
     94 H94       -74.5457   26.8181  -73.3348 H         1 UNK         0.0784 
     95 H95       -74.2003   25.1991  -72.7369 H         1 UNK         0.0784 
     96 H96       -74.0796   25.2731  -75.2490 H         1 UNK         0.3213 
     97 H97       -72.2766   24.1785  -78.1522 H         1 UNK         0.0855 
     98 H98       -74.2165   22.8430  -76.1845 H         1 UNK         0.0814 
     99 H99       -72.6584   22.2090  -76.6901 H         1 UNK         0.0814 
    100 H100      -73.9562   22.3675  -77.8620 H         1 UNK         0.0814 
    101 H101      -75.0311   24.8762  -77.3825 H         1 UNK         0.3105 
    102 H102      -75.0154   27.9868  -79.0182 H         1 UNK         0.0547 
    103 H103      -76.2812   25.4122  -80.1039 H         1 UNK         0.0837 
    104 H104      -76.8023   27.0588  -80.4632 H         1 UNK         0.0837 
    105 H105      -75.2349   26.4932  -81.0137 H         1 UNK         0.0837 
    106 H106      -77.1596   26.4077  -78.0046 H         1 UNK         0.3020 
    107 H107      -76.8637   27.4193  -74.5862 H         1 UNK         0.1245 
    108 H108      -79.2268   28.0535  -75.0673 H         1 UNK         0.0781 
    109 H109      -78.9194   28.0170  -76.7783 H         1 UNK         0.0781 
    110 H110      -78.3248   31.5991  -74.0448 H         1 UNK         0.0836 
    111 H111      -79.6304   30.4428  -74.1051 H         1 UNK         0.0836 
    112 H112      -78.7356   25.6880  -75.7716 H         1 UNK         0.3022 
    113 H113      -77.1391   22.8011  -76.2251 H         1 UNK         0.0747 
    114 H114      -76.4109   22.4443  -73.9136 H         1 UNK         0.0793 
    115 H115      -77.9293   21.6020  -74.1717 H         1 UNK         0.0793 
    116 H116      -77.8996   23.1201  -73.2778 H         1 UNK         0.0793 
    117 H117      -79.7458   23.2269  -75.0354 H         1 UNK         0.3047 
    118 H118      -81.2807   23.8133  -78.2775 H         1 UNK         0.0822 
    119 H119      -81.2351   21.4260  -77.5177 H         1 UNK         0.0807 
    120 H120      -82.7660   22.2028  -77.1495 H         1 UNK         0.0807 
    121 H121      -81.5849   21.9346  -75.8714 H         1 UNK         0.0807 
    122 H122      -82.1870   24.3090  -75.5634 H         1 UNK         0.2946 
    123 H123      -81.8200   27.8634  -75.7635 H         1 UNK         0.1144 
    124 H124      -84.0311   27.3678  -76.6753 H         1 UNK         0.0793 
    125 H125      -84.1738   27.6485  -74.9478 H         1 UNK         0.0793 
    126 H126      -84.2512   26.0087  -75.5908 H         1 UNK         0.0793 
    127 H127      -81.0842   27.1474  -73.8241 H         1 UNK         0.2896 
@<TRIPOS>BOND
     1    1    2 1    
     2    1   67 1    
     3    1   68 1    
     4    1   69 1    
     5    2    3 2    
     6    2    4 am   BACKBONE|DICT|INTERRES
     7    4    5 1    
     8    4   70 1    
     9    5    6 1    
    10    5   65 1    
    11    5   71 1    
    12    6    7 1    
    13    6   72 1    
    14    6   73 1    
    15    7    8 1    
    16    8    9 1    
    17    8   74 1    
    18    8   75 1    
    19    9   10 ar   
    20    9   14 ar   
    21   10   11 ar   
    22   10   76 1    
    23   11   12 ar   
    24   11   48 1    
    25   12   13 ar   
    26   12   77 1    
    27   13   14 ar   
    28   13   15 1    
    29   14   78 1    
    30   15   16 1    
    31   15   79 1    
    32   15   80 1    
    33   16   17 1    
    34   17   18 1    
    35   17   81 1    
    36   17   82 1    
    37   18   19 1    
    38   18   22 1    
    39   18   83 1    
    40   19   20 am   BACKBONE|DICT|INTERRES
    41   19   21 2    
    42   20   84 1    
    43   20   85 1    
    44   22   23 am   BACKBONE|DICT|INTERRES
    45   22   86 1    
    46   23   24 2    
    47   23   25 1    
    48   25   26 1    
    49   25   27 1    
    50   25   87 1    
    51   26   88 1    
    52   26   89 1    
    53   26   90 1    
    54   27   28 am   BACKBONE|DICT|INTERRES
    55   27   91 1    
    56   28   29 2    
    57   28   30 1    
    58   30   31 1    
    59   30   32 1    
    60   30   92 1    
    61   31   93 1    
    62   31   94 1    
    63   31   95 1    
    64   32   33 am   BACKBONE|DICT|INTERRES
    65   32   96 1    
    66   33   34 2    
    67   33   35 1    
    68   35   36 1    
    69   35   37 1    
    70   35   97 1    
    71   36   98 1    
    72   36   99 1    
    73   36  100 1    
    74   37   38 am   BACKBONE|DICT|INTERRES
    75   37  101 1    
    76   38   39 2    
    77   38   40 1    
    78   40   41 1    
    79   40   42 1    
    80   40  102 1    
    81   41  103 1    
    82   41  104 1    
    83   41  105 1    
    84   42   43 am   BACKBONE|DICT|INTERRES
    85   42  106 1    
    86   43   44 2    
    87   43   45 1    
    88   45   46 1    
    89   45   49 1    
    90   45  107 1    
    91   46   47 1    
    92   46  108 1    
    93   46  109 1    
    94   47   48 1    
    95   48  110 1    
    96   48  111 1    
    97   49   50 am   BACKBONE|DICT|INTERRES
    98   49  112 1    
    99   50   51 2    
   100   50   52 1    
   101   52   53 1    
   102   52   54 1    
   103   52  113 1    
   104   53  114 1    
   105   53  115 1    
   106   53  116 1    
   107   54   55 am   BACKBONE|DICT|INTERRES
   108   54  117 1    
   109   55   56 2    
   110   55   57 1    
   111   57   58 1    
   112   57   59 1    
   113   57  118 1    
   114   58  119 1    
   115   58  120 1    
   116   58  121 1    
   117   59   60 am   BACKBONE|DICT|INTERRES
   118   59  122 1    
   119   60   61 2    
   120   60   62 1    
   121   62   63 1    
   122   62   64 1    
   123   62  123 1    
   124   63  124 1    
   125   63  125 1    
   126   63  126 1    
   127   64   65 am   BACKBONE|DICT|INTERRES
   128   64  127 1    
   129   65   66 2    
@<TRIPOS>SUBSTRUCTURE
     1 UNK         1 GROUP             0       ****    0 ROOT    
