@<TRIPOS>MOLECULE
3R135
127   129    1
SMALL
USER_CHARGES


@<TRIPOS>ATOM
      1 CA        -79.2312   25.8233  -71.6685 C.3       0 UNK        -0.1998 
      2 C         -79.7244   26.0432  -73.0908 C.2       0 UNK         0.4909 
      3 O         -80.6173   25.3263  -73.5472 O.2       0 UNK        -0.5240 
      4 N         -79.1316   27.0225  -73.7883 N.am      1 UNK        -0.4739 
      5 CA        -79.4469   27.4532  -75.1575 C.3       1 UNK         0.0864 
      6 C6        -78.4611   28.5395  -75.6484 C.3       11 UNK        -0.0881 
      7 S7        -78.4451   30.0212  -74.5832 S.3       11 UNK        -0.2682 
      8 C8        -76.6686   30.2093  -74.2376 C.3       11 UNK         0.0289 
      9 C9        -76.2410   29.4709  -72.9777 C.ar      11 UNK        -0.0687 
     10 C10       -75.8576   28.1275  -73.0289 C.ar      11 UNK        -0.0823 
     11 C11       -75.3963   27.4666  -71.8790 C.ar      11 UNK        -0.0830 
     12 C12       -75.3205   28.1802  -70.6790 C.ar      11 UNK        -0.1021 
     13 C13       -75.6822   29.5280  -70.6197 C.ar      11 UNK        -0.0753 
     14 C14       -76.1660   30.1603  -71.7662 C.ar      11 UNK        -0.0933 
     15 C15       -75.5179   30.3031  -69.3221 C.3       11 UNK         0.0166 
     16 S16       -73.7990   30.8677  -69.0953 S.3       11 UNK        -0.2615 
     17 C17       -73.7236   32.3277  -70.1965 C.3       11 UNK        -0.0865 
     18 CA        -72.3894   32.4893  -70.9831 C.3       10 UNK         0.0862 
     19 C         -71.1668   32.7881  -70.0741 C.2       10 UNK         0.5551 
     20 N         -71.1792   33.9070  -69.3623 N.am      10 UNK        -0.7319 
     21 O         -70.2054   32.0221  -70.0104 O.2       10 UNK        -0.5018 
     22 N         -72.1046   31.3773  -71.8979 N.am      10 UNK        -0.4509 
     23 C         -72.7298   31.1317  -73.0528 C.2       10 UNK         0.4899 
     24 O         -73.6920   31.7883  -73.4580 O.2       10 UNK        -0.4839 
     25 CA        -72.1555   29.9752  -73.8988 C.3       9 UNK         0.0222 
     26 CB        -72.0981   28.6538  -73.1136 C.3       9 UNK        -0.1966 
     27 N         -72.9167   29.7641  -75.1337 N.am      9 UNK        -0.4218 
     28 C         -72.7818   30.4967  -76.2461 C.2       9 UNK         0.5020 
     29 O         -71.9324   31.3802  -76.3843 O.2       9 UNK        -0.5274 
     30 CA        -73.7332   30.1556  -77.4086 C.3       8 UNK         0.0270 
     31 CB        -73.5836   31.1185  -78.6023 C.3       8 UNK        -0.1976 
     32 N         -73.5184   28.7847  -77.8758 N.am      8 UNK        -0.4313 
     33 C         -74.0981   27.6986  -77.3548 C.2       8 UNK         0.5041 
     34 O         -74.8855   27.7287  -76.4054 O.2       8 UNK        -0.5577 
     35 CA        -73.7107   26.3529  -77.9736 C.3       7 UNK         0.0284 
     36 CB        -72.4859   25.7573  -77.2564 C.3       7 UNK        -0.1958 
     37 N         -74.8480   25.4495  -77.8474 N.am      7 UNK        -0.4454 
     38 C         -75.1080   24.3936  -78.6282 C.2       7 UNK         0.5089 
     39 O         -74.3931   24.0543  -79.5729 O.2       7 UNK        -0.5125 
     40 CA        -76.3875   23.5918  -78.3019 C.3       6 UNK         0.0408 
     41 CB        -76.3622   22.1535  -78.8597 C.3       6 UNK        -0.1791 
     42 N         -76.7148   23.6012  -76.8714 N.am      6 UNK        -0.4762 
     43 C         -75.9758   23.1143  -75.8619 C.2       6 UNK         0.5007 
     44 O         -74.9511   22.4466  -76.0061 O.2       6 UNK        -0.5032 
     45 CA        -76.4700   23.4621  -74.4494 C.3       5 UNK         0.0783 
     46 C46       -76.2222   24.9568  -74.1289 C.3       11 UNK        -0.0857 
     47 S47       -74.5435   25.2868  -73.5077 S.3       11 UNK        -0.2512 
     48 C48       -74.9217   26.0093  -71.8733 C.3       11 UNK         0.0225 
     49 N         -77.8864   23.1063  -74.3009 N.am      5 UNK        -0.4615 
     50 C         -78.3070   21.9625  -73.7463 C.2       4 UNK         0.5053 
     51 O         -77.5392   21.0923  -73.3338 O.2       4 UNK        -0.5105 
     52 CA        -79.8166   21.7232  -73.5909 C.3       4 UNK         0.0263 
     53 CB        -80.2477   21.9383  -72.1296 C.3       4 UNK        -0.1981 
     54 N         -80.6589   22.5568  -74.4561 N.am      4 UNK        -0.4224 
     55 C         -81.5558   22.0543  -75.3182 C.2       3 UNK         0.4895 
     56 O         -81.6653   20.8558  -75.5824 O.2       3 UNK        -0.5091 
     57 CA        -82.5248   23.0460  -75.9789 C.3       3 UNK         0.0250 
     58 CB        -83.5541   23.5687  -74.9623 C.3       3 UNK        -0.1996 
     59 N         -81.8397   24.1716  -76.6070 N.am      3 UNK        -0.4254 
     60 C         -81.1402   24.1010  -77.7485 C.2       2 UNK         0.5004 
     61 O         -81.0086   23.0713  -78.4104 O.2       2 UNK        -0.5226 
     62 CA        -80.4868   25.4028  -78.2522 C.3       2 UNK         0.0269 
     63 CB        -81.3018   26.0015  -79.4103 C.3       2 UNK        -0.1926 
     64 N         -80.3152   26.4219  -77.2099 N.am      2 UNK        -0.4687 
     65 C         -79.4749   26.2950  -76.1759 C.2       1 UNK         0.5165 
     66 O         -78.7396   25.3172  -76.0263 O.2       1 UNK        -0.5079 
     67 H67       -80.0755   25.7777  -70.9814 H         1 UNK         0.0900 
     68 H68       -78.6832   24.8844  -71.6003 H         1 UNK         0.0900 
     69 H69       -78.5704   26.6256  -71.3393 H         1 UNK         0.0900 
     70 H70       -78.4146   27.5737  -73.3381 H         1 UNK         0.2959 
     71 H71       -80.4500   27.8830  -75.1205 H         1 UNK         0.1079 
     72 H72       -78.7235   28.8720  -76.6549 H         1 UNK         0.0837 
     73 H73       -77.4549   28.1247  -75.7266 H         1 UNK         0.0837 
     74 H74       -76.4503   31.2731  -74.1313 H         1 UNK         0.0685 
     75 H75       -76.0780   29.8745  -75.0901 H         1 UNK         0.0685 
     76 H76       -75.8927   27.6214  -73.9805 H         1 UNK         0.1434 
     77 H77       -74.9443   27.6946  -69.7886 H         1 UNK         0.1329 
     78 H78       -76.4478   31.2033  -71.7284 H         1 UNK         0.1335 
     79 H79       -75.7917   29.6647  -68.4808 H         1 UNK         0.0680 
     80 H80       -76.1958   31.1575  -69.2890 H         1 UNK         0.0680 
     81 H81       -74.5479   32.2897  -70.9068 H         1 UNK         0.1032 
     82 H82       -73.9173   33.2152  -69.5923 H         1 UNK         0.1032 
     83 H83       -72.4903   33.3757  -71.6128 H         1 UNK         0.0461 
     84 H84       -71.9533   34.5508  -69.4107 H         1 UNK         0.3453 
     85 H85       -70.3927   34.1158  -68.7672 H         1 UNK         0.3453 
     86 H86       -71.3044   30.8213  -71.6263 H         1 UNK         0.2984 
     87 H87       -71.1322   30.2453  -74.1675 H         1 UNK         0.0554 
     88 H88       -71.3972   28.7136  -72.2807 H         1 UNK         0.0847 
     89 H89       -71.7747   27.8254  -73.7444 H         1 UNK         0.0847 
     90 H90       -73.0682   28.3967  -72.6982 H         1 UNK         0.0847 
     91 H91       -73.6448   29.0596  -75.1156 H         1 UNK         0.3141 
     92 H92       -74.7543   30.2567  -77.0357 H         1 UNK         0.0743 
     93 H93       -72.5845   31.0743  -79.0378 H         1 UNK         0.0784 
     94 H94       -74.3028   30.8888  -79.3888 H         1 UNK         0.0784 
     95 H95       -73.7609   32.1502  -78.2954 H         1 UNK         0.0784 
     96 H96       -72.8451   28.6675  -78.6200 H         1 UNK         0.3213 
     97 H97       -73.4842   26.5022  -79.0317 H         1 UNK         0.0855 
     98 H98       -72.6861   25.5888  -76.1971 H         1 UNK         0.0814 
     99 H99       -71.6260   26.4246  -77.3251 H         1 UNK         0.0814 
    100 H100      -72.1925   24.8038  -77.6957 H         1 UNK         0.0814 
    101 H101      -75.4950   25.7037  -77.1116 H         1 UNK         0.3105 
    102 H102      -77.2036   24.1184  -78.7979 H         1 UNK         0.0547 
    103 H103      -77.2795   21.6178  -78.6158 H         1 UNK         0.0837 
    104 H104      -75.5224   21.5796  -78.4673 H         1 UNK         0.0837 
    105 H105      -76.2704   22.1580  -79.9464 H         1 UNK         0.0837 
    106 H106      -77.5298   24.1591  -76.6164 H         1 UNK         0.3020 
    107 H107      -75.8785   22.8694  -73.7472 H         1 UNK         0.1245 
    108 H108      -76.9277   25.2842  -73.3683 H         1 UNK         0.0781 
    109 H109      -76.4050   25.6035  -74.9879 H         1 UNK         0.0781 
    110 H110      -74.0097   25.9428  -71.2779 H         1 UNK         0.0836 
    111 H111      -75.6611   25.3911  -71.3623 H         1 UNK         0.0836 
    112 H112      -78.5534   23.7652  -74.6854 H         1 UNK         0.3022 
    113 H113      -79.9671   20.6660  -73.8189 H         1 UNK         0.0747 
    114 H114      -81.2821   21.6304  -71.9762 H         1 UNK         0.0793 
    115 H115      -79.6325   21.3527  -71.4448 H         1 UNK         0.0793 
    116 H116      -80.1657   22.9833  -71.8329 H         1 UNK         0.0793 
    117 H117      -80.6607   23.5580  -74.2700 H         1 UNK         0.3047 
    118 H118      -83.0702   22.5061  -76.7566 H         1 UNK         0.0822 
    119 H119      -84.3050   24.1941  -75.4454 H         1 UNK         0.0807 
    120 H120      -83.0858   24.1579  -74.1727 H         1 UNK         0.0807 
    121 H121      -84.0821   22.7432  -74.4828 H         1 UNK         0.0807 
    122 H122      -81.8742   25.0557  -76.1206 H         1 UNK         0.2946 
    123 H123      -79.4982   25.1360  -78.6323 H         1 UNK         0.1144 
    124 H124      -80.8077   26.8762  -79.8336 H         1 UNK         0.0793 
    125 H125      -82.3006   26.3001  -79.0895 H         1 UNK         0.0793 
    126 H126      -81.4221   25.2782  -80.2182 H         1 UNK         0.0793 
    127 H127      -80.8853   27.2525  -77.2889 H         1 UNK         0.2896 
@<TRIPOS>BOND
     1    1    2 1    
     2    1   67 1    
     3    1   68 1    
     4    1   69 1    
     5    2    3 2    
     6    2    4 am   BACKBONE|DICT|INTERRES
     7    4    5 1    
     8    4   70 1    
     9    5    6 1    
    10    5   65 1    
    11    5   71 1    
    12    6    7 1    
    13    6   72 1    
    14    6   73 1    
    15    7    8 1    
    16    8    9 1    
    17    8   74 1    
    18    8   75 1    
    19    9   10 ar   
    20    9   14 ar   
    21   10   11 ar   
    22   10   76 1    
    23   11   12 ar   
    24   11   48 1    
    25   12   13 ar   
    26   12   77 1    
    27   13   14 ar   
    28   13   15 1    
    29   14   78 1    
    30   15   16 1    
    31   15   79 1    
    32   15   80 1    
    33   16   17 1    
    34   17   18 1    
    35   17   81 1    
    36   17   82 1    
    37   18   19 1    
    38   18   22 1    
    39   18   83 1    
    40   19   20 am   BACKBONE|DICT|INTERRES
    41   19   21 2    
    42   20   84 1    
    43   20   85 1    
    44   22   23 am   BACKBONE|DICT|INTERRES
    45   22   86 1    
    46   23   24 2    
    47   23   25 1    
    48   25   26 1    
    49   25   27 1    
    50   25   87 1    
    51   26   88 1    
    52   26   89 1    
    53   26   90 1    
    54   27   28 am   BACKBONE|DICT|INTERRES
    55   27   91 1    
    56   28   29 2    
    57   28   30 1    
    58   30   31 1    
    59   30   32 1    
    60   30   92 1    
    61   31   93 1    
    62   31   94 1    
    63   31   95 1    
    64   32   33 am   BACKBONE|DICT|INTERRES
    65   32   96 1    
    66   33   34 2    
    67   33   35 1    
    68   35   36 1    
    69   35   37 1    
    70   35   97 1    
    71   36   98 1    
    72   36   99 1    
    73   36  100 1    
    74   37   38 am   BACKBONE|DICT|INTERRES
    75   37  101 1    
    76   38   39 2    
    77   38   40 1    
    78   40   41 1    
    79   40   42 1    
    80   40  102 1    
    81   41  103 1    
    82   41  104 1    
    83   41  105 1    
    84   42   43 am   BACKBONE|DICT|INTERRES
    85   42  106 1    
    86   43   44 2    
    87   43   45 1    
    88   45   46 1    
    89   45   49 1    
    90   45  107 1    
    91   46   47 1    
    92   46  108 1    
    93   46  109 1    
    94   47   48 1    
    95   48  110 1    
    96   48  111 1    
    97   49   50 am   BACKBONE|DICT|INTERRES
    98   49  112 1    
    99   50   51 2    
   100   50   52 1    
   101   52   53 1    
   102   52   54 1    
   103   52  113 1    
   104   53  114 1    
   105   53  115 1    
   106   53  116 1    
   107   54   55 am   BACKBONE|DICT|INTERRES
   108   54  117 1    
   109   55   56 2    
   110   55   57 1    
   111   57   58 1    
   112   57   59 1    
   113   57  118 1    
   114   58  119 1    
   115   58  120 1    
   116   58  121 1    
   117   59   60 am   BACKBONE|DICT|INTERRES
   118   59  122 1    
   119   60   61 2    
   120   60   62 1    
   121   62   63 1    
   122   62   64 1    
   123   62  123 1    
   124   63  124 1    
   125   63  125 1    
   126   63  126 1    
   127   64   65 am   BACKBONE|DICT|INTERRES
   128   64  127 1    
   129   65   66 2    
@<TRIPOS>SUBSTRUCTURE
     1 UNK         1 GROUP             0       ****    0 ROOT    
