@<TRIPOS>MOLECULE
3R135
127   129    1
SMALL
USER_CHARGES


@<TRIPOS>ATOM
      1 CA        -79.3820   28.9030  -70.2780 C.3       0 UNK        -0.1998 
      2 C         -80.6297   28.6916  -71.1196 C.2       0 UNK         0.4909 
      3 O         -81.7408   28.9225  -70.6414 O.2       0 UNK        -0.5240 
      4 N         -80.4546   28.2465  -72.3706 N.am      1 UNK        -0.4739 
      5 CA        -81.5457   27.9804  -73.3202 C.3       1 UNK         0.0864 
      6 C6        -81.0468   27.9170  -74.7844 C.3       11 UNK        -0.0881 
      7 S7        -80.2256   29.4542  -75.3244 S.3       11 UNK        -0.2682 
      8 C8        -78.5388   28.8653  -75.6731 C.3       11 UNK         0.0289 
      9 C9        -77.7810   28.5181  -74.4009 C.ar      11 UNK        -0.0687 
     10 C10       -77.5854   27.1831  -74.0334 C.ar      11 UNK        -0.0823 
     11 C11       -76.8753   26.8577  -72.8686 C.ar      11 UNK        -0.0830 
     12 C12       -76.3518   27.8924  -72.0877 C.ar      11 UNK        -0.1021 
     13 C13       -76.5481   29.2301  -72.4391 C.ar      11 UNK        -0.0753 
     14 C14       -77.2673   29.5375  -73.5961 C.ar      11 UNK        -0.0933 
     15 C15       -75.9976   30.3368  -71.5526 C.3       11 UNK         0.0166 
     16 S16       -74.2507   30.6908  -71.9187 S.3       11 UNK        -0.2615 
     17 C17       -74.3786   31.5966  -73.4993 C.3       11 UNK        -0.0865 
     18 CA        -74.0161   30.7298  -74.7425 C.3       10 UNK         0.0862 
     19 C         -74.2870   31.4636  -76.0908 C.2       10 UNK         0.5551 
     20 N         -73.7300   30.9972  -77.2005 N.am      10 UNK        -0.7319 
     21 O         -75.0163   32.4514  -76.1428 O.2       10 UNK        -0.5018 
     22 N         -72.6777   30.1166  -74.6615 N.am      10 UNK        -0.4509 
     23 C         -71.5086   30.7666  -74.5949 C.2       10 UNK         0.4899 
     24 O         -71.4140   31.9950  -74.5896 O.2       10 UNK        -0.4839 
     25 CA        -70.2096   29.9319  -74.5541 C.3       9 UNK         0.0222 
     26 CB        -69.2878   30.3743  -73.3980 C.3       9 UNK        -0.1966 
     27 N         -70.3843   28.4714  -74.5552 N.am      9 UNK        -0.4218 
     28 C         -70.9177   27.6813  -73.6118 C.2       9 UNK         0.5020 
     29 O         -71.3781   28.1001  -72.5495 O.2       9 UNK        -0.5274 
     30 CA        -70.9532   26.1677  -73.9231 C.3       8 UNK         0.0270 
     31 CB        -71.7740   25.3725  -72.8894 C.3       8 UNK        -0.1976 
     32 N         -71.4763   25.8834  -75.2645 N.am      8 UNK        -0.4313 
     33 C         -70.7951   26.0284  -76.4123 C.2       8 UNK         0.5041 
     34 O         -69.6167   26.3847  -76.4524 O.2       8 UNK        -0.5577 
     35 CA        -71.5505   25.8059  -77.7376 C.3       7 UNK         0.0284 
     36 CB        -71.3151   24.3784  -78.2560 C.3       7 UNK        -0.1958 
     37 N         -72.9907   26.0539  -77.6428 N.am      7 UNK        -0.4454 
     38 C         -73.5557   27.2157  -77.2854 C.2       7 UNK         0.5089 
     39 O         -72.9215   28.2576  -77.1207 O.2       7 UNK        -0.5125 
     40 CA        -75.0748   27.2110  -77.0227 C.3       6 UNK         0.0408 
     41 CB        -75.8127   27.8551  -78.2066 C.3       6 UNK        -0.1791 
     42 N         -75.6615   25.8897  -76.7510 N.am      6 UNK        -0.4762 
     43 C         -75.2883   25.0276  -75.7897 C.2       6 UNK         0.5007 
     44 O         -74.3335   25.2301  -75.0387 O.2       6 UNK        -0.5032 
     45 CA        -76.0783   23.7067  -75.6728 C.3       5 UNK         0.0783 
     46 C46       -76.2809   23.2453  -74.2037 C.3       11 UNK        -0.0857 
     47 S47       -77.5884   24.1301  -73.2773 S.3       11 UNK        -0.2512 
     48 C48       -76.6365   25.4201  -72.4003 C.3       11 UNK         0.0225 
     49 N         -77.3470   23.7514  -76.4032 N.am      5 UNK        -0.4615 
     50 C         -77.5843   23.2879  -77.6336 C.2       4 UNK         0.5053 
     51 O         -76.7098   22.8058  -78.3541 O.2       4 UNK        -0.5105 
     52 CA        -79.0485   23.3727  -78.1259 C.3       4 UNK         0.0263 
     53 CB        -79.2697   22.6248  -79.4540 C.3       4 UNK        -0.1981 
     54 N         -80.0056   22.8699  -77.1300 N.am      4 UNK        -0.4224 
     55 C         -80.3704   23.5171  -76.0154 C.2       3 UNK         0.4895 
     56 O         -79.9862   24.6591  -75.7443 O.2       3 UNK        -0.5091 
     57 CA        -81.2389   22.7465  -75.0111 C.3       3 UNK         0.0250 
     58 CB        -80.5649   21.4281  -74.5743 C.3       3 UNK        -0.1996 
     59 N         -81.4403   23.6068  -73.8506 N.am      3 UNK        -0.4254 
     60 C         -82.3656   23.4750  -72.8958 C.2       2 UNK         0.5004 
     61 O         -83.2053   22.5743  -72.8708 O.2       2 UNK        -0.5226 
     62 CA        -82.3474   24.5246  -71.7696 C.3       2 UNK         0.0269 
     63 CB        -81.5837   23.9845  -70.5494 C.3       2 UNK        -0.1926 
     64 N         -81.7500   25.8015  -72.1753 N.am      2 UNK        -0.4687 
     65 C         -82.3405   26.7009  -72.9767 C.2       1 UNK         0.5165 
     66 O         -83.4692   26.5494  -73.4463 O.2       1 UNK        -0.5079 
     67 H67       -79.6289   28.8995  -69.2166 H         1 UNK         0.0900 
     68 H68       -78.9224   29.8610  -70.5186 H         1 UNK         0.0900 
     69 H69       -78.6539   28.1121  -70.4530 H         1 UNK         0.0900 
     70 H70       -79.5175   28.1174  -72.7304 H         1 UNK         0.2959 
     71 H71       -82.2546   28.8087  -73.2486 H         1 UNK         0.1079 
     72 H72       -80.3721   27.0721  -74.9200 H         1 UNK         0.0837 
     73 H73       -81.8826   27.7415  -75.4647 H         1 UNK         0.0837 
     74 H74       -77.9972   29.6431  -76.2138 H         1 UNK         0.0685 
     75 H75       -78.5892   28.0054  -76.3427 H         1 UNK         0.0685 
     76 H76       -77.9885   26.4059  -74.6662 H         1 UNK         0.1434 
     77 H77       -75.7930   27.6575  -71.1917 H         1 UNK         0.1329 
     78 H78       -77.4271   30.5700  -73.8750 H         1 UNK         0.1335 
     79 H79       -76.5918   31.2464  -71.6528 H         1 UNK         0.0680 
     80 H80       -76.0800   30.0382  -70.5064 H         1 UNK         0.0680 
     81 H81       -75.3901   31.9941  -73.5936 H         1 UNK         0.1032 
     82 H82       -73.7303   32.4719  -73.4436 H         1 UNK         0.1032 
     83 H83       -74.7075   29.8877  -74.7523 H         1 UNK         0.0461 
     84 H84       -73.8950   31.4664  -78.0760 H         1 UNK         0.3453 
     85 H85       -73.2032   30.1287  -77.1753 H         1 UNK         0.3453 
     86 H86       -72.6552   29.1087  -74.6994 H         1 UNK         0.2984 
     87 H87       -69.6902   30.1571  -75.4866 H         1 UNK         0.0554 
     88 H88       -68.3527   29.8143  -73.3973 H         1 UNK         0.0847 
     89 H89       -69.7633   30.2373  -72.4263 H         1 UNK         0.0847 
     90 H90       -69.0298   31.4305  -73.4837 H         1 UNK         0.0847 
     91 H91       -70.0408   27.9933  -75.3845 H         1 UNK         0.3141 
     92 H92       -69.9230   25.8094  -73.8709 H         1 UNK         0.0743 
     93 H93       -71.3543   25.4811  -71.8885 H         1 UNK         0.0784 
     94 H94       -72.8087   25.7156  -72.8477 H         1 UNK         0.0784 
     95 H95       -71.7836   24.3076  -73.1220 H         1 UNK         0.0784 
     96 H96       -72.4615   25.6320  -75.3089 H         1 UNK         0.3213 
     97 H97       -71.1429   26.5101  -78.4662 H         1 UNK         0.0855 
     98 H98       -71.7241   23.6291  -77.5769 H         1 UNK         0.0814 
     99 H99       -70.2487   24.1737  -78.3624 H         1 UNK         0.0814 
    100 H100      -71.7700   24.2304  -79.2356 H         1 UNK         0.0814 
    101 H101      -73.5991   25.2578  -77.7626 H         1 UNK         0.3105 
    102 H102      -75.2473   27.8244  -76.1362 H         1 UNK         0.0547 
    103 H103      -75.6725   27.2855  -79.1261 H         1 UNK         0.0837 
    104 H104      -76.8829   27.9325  -78.0220 H         1 UNK         0.0837 
    105 H105      -75.4462   28.8658  -78.3918 H         1 UNK         0.0837 
    106 H106      -76.4415   25.6189  -77.3316 H         1 UNK         0.3020 
    107 H107      -75.4355   22.9604  -76.1455 H         1 UNK         0.1245 
    108 H108      -75.3432   23.2622  -73.6454 H         1 UNK         0.0781 
    109 H109      -76.5745   22.1946  -74.2141 H         1 UNK         0.0781 
    110 H110      -75.5683   25.2091  -72.4620 H         1 UNK         0.0836 
    111 H111      -76.8963   25.3517  -71.3429 H         1 UNK         0.0836 
    112 H112      -78.1331   24.1478  -75.8951 H         1 UNK         0.3022 
    113 H113      -79.2601   24.4294  -78.3039 H         1 UNK         0.0747 
    114 H114      -79.0585   21.5591  -79.3572 H         1 UNK         0.0793 
    115 H115      -80.2961   22.7339  -79.8049 H         1 UNK         0.0793 
    116 H116      -78.6201   23.0167  -80.2380 H         1 UNK         0.0793 
    117 H117      -80.3360   21.9256  -77.2687 H         1 UNK         0.3047 
    118 H118      -82.2044   22.5400  -75.4771 H         1 UNK         0.0822 
    119 H119      -80.4419   20.7419  -75.4124 H         1 UNK         0.0807 
    120 H120      -81.1585   20.9044  -73.8250 H         1 UNK         0.0807 
    121 H121      -79.5766   21.6068  -74.1480 H         1 UNK         0.0807 
    122 H122      -80.8186   24.4061  -73.8279 H         1 UNK         0.2946 
    123 H123      -83.3842   24.7056  -71.4762 H         1 UNK         0.1144 
    124 H124      -82.0177   23.0459  -70.2016 H         1 UNK         0.0793 
    125 H125      -81.6209   24.6855  -69.7152 H         1 UNK         0.0793 
    126 H126      -80.5352   23.7923  -70.7819 H         1 UNK         0.0793 
    127 H127      -80.8262   26.0106  -71.8255 H         1 UNK         0.2896 
@<TRIPOS>BOND
     1    1    2 1    
     2    1   67 1    
     3    1   68 1    
     4    1   69 1    
     5    2    3 2    
     6    2    4 am   BACKBONE|DICT|INTERRES
     7    4    5 1    
     8    4   70 1    
     9    5    6 1    
    10    5   65 1    
    11    5   71 1    
    12    6    7 1    
    13    6   72 1    
    14    6   73 1    
    15    7    8 1    
    16    8    9 1    
    17    8   74 1    
    18    8   75 1    
    19    9   10 ar   
    20    9   14 ar   
    21   10   11 ar   
    22   10   76 1    
    23   11   12 ar   
    24   11   48 1    
    25   12   13 ar   
    26   12   77 1    
    27   13   14 ar   
    28   13   15 1    
    29   14   78 1    
    30   15   16 1    
    31   15   79 1    
    32   15   80 1    
    33   16   17 1    
    34   17   18 1    
    35   17   81 1    
    36   17   82 1    
    37   18   19 1    
    38   18   22 1    
    39   18   83 1    
    40   19   20 am   BACKBONE|DICT|INTERRES
    41   19   21 2    
    42   20   84 1    
    43   20   85 1    
    44   22   23 am   BACKBONE|DICT|INTERRES
    45   22   86 1    
    46   23   24 2    
    47   23   25 1    
    48   25   26 1    
    49   25   27 1    
    50   25   87 1    
    51   26   88 1    
    52   26   89 1    
    53   26   90 1    
    54   27   28 am   BACKBONE|DICT|INTERRES
    55   27   91 1    
    56   28   29 2    
    57   28   30 1    
    58   30   31 1    
    59   30   32 1    
    60   30   92 1    
    61   31   93 1    
    62   31   94 1    
    63   31   95 1    
    64   32   33 am   BACKBONE|DICT|INTERRES
    65   32   96 1    
    66   33   34 2    
    67   33   35 1    
    68   35   36 1    
    69   35   37 1    
    70   35   97 1    
    71   36   98 1    
    72   36   99 1    
    73   36  100 1    
    74   37   38 am   BACKBONE|DICT|INTERRES
    75   37  101 1    
    76   38   39 2    
    77   38   40 1    
    78   40   41 1    
    79   40   42 1    
    80   40  102 1    
    81   41  103 1    
    82   41  104 1    
    83   41  105 1    
    84   42   43 am   BACKBONE|DICT|INTERRES
    85   42  106 1    
    86   43   44 2    
    87   43   45 1    
    88   45   46 1    
    89   45   49 1    
    90   45  107 1    
    91   46   47 1    
    92   46  108 1    
    93   46  109 1    
    94   47   48 1    
    95   48  110 1    
    96   48  111 1    
    97   49   50 am   BACKBONE|DICT|INTERRES
    98   49  112 1    
    99   50   51 2    
   100   50   52 1    
   101   52   53 1    
   102   52   54 1    
   103   52  113 1    
   104   53  114 1    
   105   53  115 1    
   106   53  116 1    
   107   54   55 am   BACKBONE|DICT|INTERRES
   108   54  117 1    
   109   55   56 2    
   110   55   57 1    
   111   57   58 1    
   112   57   59 1    
   113   57  118 1    
   114   58  119 1    
   115   58  120 1    
   116   58  121 1    
   117   59   60 am   BACKBONE|DICT|INTERRES
   118   59  122 1    
   119   60   61 2    
   120   60   62 1    
   121   62   63 1    
   122   62   64 1    
   123   62  123 1    
   124   63  124 1    
   125   63  125 1    
   126   63  126 1    
   127   64   65 am   BACKBONE|DICT|INTERRES
   128   64  127 1    
   129   65   66 2    
@<TRIPOS>SUBSTRUCTURE
     1 UNK         1 GROUP             0       ****    0 ROOT    
