@<TRIPOS>MOLECULE
3R135
127   129    1
SMALL
USER_CHARGES


@<TRIPOS>ATOM
      1 CA        -80.6010   25.1796  -70.6757 C.3       0 UNK        -0.1998 
      2 C         -80.8308   25.5263  -72.1380 C.2       0 UNK         0.4909 
      3 O         -80.3760   24.7993  -73.0177 O.2       0 UNK        -0.5240 
      4 N         -81.5473   26.6264  -72.4106 N.am      1 UNK        -0.4739 
      5 CA        -81.8389   27.1739  -73.7491 C.3       1 UNK         0.0864 
      6 C6        -80.5499   27.6206  -74.5096 C.3       11 UNK        -0.0881 
      7 S7        -80.5069   29.4186  -74.8105 S.3       11 UNK        -0.2682 
      8 C8        -79.9576   30.0543  -73.1930 C.3       11 UNK         0.0289 
      9 C9        -78.5452   29.6065  -72.8482 C.ar      11 UNK        -0.0687 
     10 C10       -78.3351   28.5865  -71.9160 C.ar      11 UNK        -0.0823 
     11 C11       -77.0405   28.1557  -71.6121 C.ar      11 UNK        -0.0830 
     12 C12       -75.9493   28.7703  -72.2344 C.ar      11 UNK        -0.1021 
     13 C13       -76.1477   29.7948  -73.1654 C.ar      11 UNK        -0.0753 
     14 C14       -77.4477   30.2107  -73.4652 C.ar      11 UNK        -0.0933 
     15 C15       -74.9687   30.4337  -73.8799 C.3       11 UNK         0.0166 
     16 S16       -74.3388   31.8827  -72.9745 S.3       11 UNK        -0.2615 
     17 C17       -73.0505   31.1312  -71.9182 C.3       11 UNK        -0.0865 
     18 CA        -71.6239   31.3203  -72.5011 C.3       10 UNK         0.0862 
     19 C         -70.5380   30.7736  -71.5271 C.2       10 UNK         0.5551 
     20 N         -69.7066   29.8121  -71.9142 N.am      10 UNK        -0.7319 
     21 O         -70.4454   31.2394  -70.3941 O.2       10 UNK        -0.5018 
     22 N         -71.5317   30.7840  -73.8658 N.am      10 UNK        -0.4509 
     23 C         -70.6534   31.1633  -74.7997 C.2       10 UNK         0.4899 
     24 O         -69.8396   32.0758  -74.6481 O.2       10 UNK        -0.4839 
     25 CA        -70.7029   30.3761  -76.1263 C.3       9 UNK         0.0222 
     26 CB        -69.3696   30.4351  -76.9013 C.3       9 UNK        -0.1966 
     27 N         -71.1472   28.9823  -75.9634 N.am      9 UNK        -0.4218 
     28 C         -70.5710   28.0301  -75.2096 C.2       9 UNK         0.5020 
     29 O         -69.5737   28.2252  -74.5126 O.2       9 UNK        -0.5274 
     30 CA        -71.2326   26.6382  -75.1773 C.3       8 UNK         0.0270 
     31 CB        -71.7375   26.3228  -73.7584 C.3       8 UNK        -0.1976 
     32 N         -72.3353   26.4756  -76.1335 N.am      8 UNK        -0.4313 
     33 C         -72.1732   26.3274  -77.4587 C.2       8 UNK         0.5041 
     34 O         -71.0677   26.3064  -78.0011 O.2       8 UNK        -0.5577 
     35 CA        -73.4279   26.1888  -78.3426 C.3       7 UNK         0.0284 
     36 CB        -73.4882   24.7921  -78.9840 C.3       7 UNK        -0.1958 
     37 N         -74.6812   26.4505  -77.6307 N.am      7 UNK        -0.4454 
     38 C         -75.1445   27.6743  -77.3329 C.2       7 UNK         0.5089 
     39 O         -74.5622   28.7135  -77.6447 O.2       7 UNK        -0.5125 
     40 CA        -76.4557   27.7625  -76.5236 C.3       6 UNK         0.0408 
     41 CB        -77.6495   27.9948  -77.4618 C.3       6 UNK        -0.1791 
     42 N         -76.7269   26.5959  -75.6765 N.am      6 UNK        -0.4762 
     43 C         -75.9136   26.1437  -74.7104 C.2       6 UNK         0.5007 
     44 O         -74.8334   26.6677  -74.4378 O.2       6 UNK        -0.5032 
     45 CA        -76.3233   24.8334  -74.0042 C.3       5 UNK         0.0783 
     46 C46       -77.1086   25.0931  -72.6950 C.3       11 UNK        -0.0857 
     47 S47       -76.0045   25.5677  -71.3190 S.3       11 UNK        -0.2512 
     48 C48       -76.8293   27.0308  -70.6063 C.3       11 UNK         0.0225 
     49 N         -77.0145   23.8795  -74.8873 N.am      5 UNK        -0.4615 
     50 C         -76.4849   23.3542  -76.0006 C.2       4 UNK         0.5053 
     51 O         -75.4101   23.7235  -76.4722 O.2       4 UNK        -0.5105 
     52 CA        -77.2440   22.2252  -76.7198 C.3       4 UNK         0.0263 
     53 CB        -76.9235   20.8627  -76.0743 C.3       4 UNK        -0.1981 
     54 N         -78.6934   22.4057  -76.8868 N.am      4 UNK        -0.4224 
     55 C         -79.6531   22.4369  -75.9530 C.2       3 UNK         0.4895 
     56 O         -79.4448   22.4324  -74.7390 O.2       3 UNK        -0.5091 
     57 CA        -81.0913   22.3854  -76.4793 C.3       3 UNK         0.0250 
     58 CB        -81.5283   20.9127  -76.6352 C.3       3 UNK        -0.1996 
     59 N         -81.9889   23.1013  -75.5727 N.am      3 UNK        -0.4254 
     60 C         -83.2669   23.4060  -75.8444 C.2       2 UNK         0.5004 
     61 O         -83.8304   23.1191  -76.9017 O.2       2 UNK        -0.5226 
     62 CA        -84.0602   24.1681  -74.7686 C.3       2 UNK         0.0269 
     63 CB        -84.6647   23.1902  -73.7478 C.3       2 UNK        -0.1926 
     64 N         -83.2575   25.1686  -74.0661 N.am      2 UNK        -0.4687 
     65 C         -82.7576   26.2819  -74.6214 C.2       1 UNK         0.5165 
     66 O         -83.0136   26.6258  -75.7766 O.2       1 UNK        -0.5079 
     67 H67       -79.5452   24.9749  -70.5013 H         1 UNK         0.0900 
     68 H68       -80.9039   25.9891  -70.0119 H         1 UNK         0.0900 
     69 H69       -81.1670   24.2875  -70.4096 H         1 UNK         0.0900 
     70 H70       -81.9346   27.1580  -71.6425 H         1 UNK         0.2959 
     71 H71       -82.4531   28.0544  -73.5537 H         1 UNK         0.1079 
     72 H72       -79.6432   27.3297  -73.9809 H         1 UNK         0.0837 
     73 H73       -80.4538   27.1291  -75.4796 H         1 UNK         0.0837 
     74 H74       -79.9956   31.1444  -73.2125 H         1 UNK         0.0685 
     75 H75       -80.6628   29.7394  -72.4224 H         1 UNK         0.0685 
     76 H76       -79.1839   28.1195  -71.4367 H         1 UNK         0.1434 
     77 H77       -74.9483   28.4278  -72.0129 H         1 UNK         0.1329 
     78 H78       -77.6080   30.9967  -74.1904 H         1 UNK         0.1335 
     79 H79       -74.1789   29.6977  -74.0345 H         1 UNK         0.0680 
     80 H80       -75.2735   30.7551  -74.8771 H         1 UNK         0.0680 
     81 H81       -73.1214   31.6004  -70.9351 H         1 UNK         0.1032 
     82 H82       -73.2659   30.0741  -71.7582 H         1 UNK         0.1032 
     83 H83       -71.4437   32.3952  -72.5640 H         1 UNK         0.0461 
     84 H84       -69.7523   29.4192  -72.8476 H         1 UNK         0.3453 
     85 H85       -69.0100   29.4782  -71.2676 H         1 UNK         0.3453 
     86 H86       -72.1482   30.0171  -74.0814 H         1 UNK         0.2984 
     87 H87       -71.4619   30.8656  -76.7382 H         1 UNK         0.0554 
     88 H88       -69.1044   31.4636  -77.1491 H         1 UNK         0.0847 
     89 H89       -69.4311   29.8835  -77.8394 H         1 UNK         0.0847 
     90 H90       -68.5458   30.0185  -76.3208 H         1 UNK         0.0847 
     91 H91       -71.9753   28.7233  -76.4828 H         1 UNK         0.3141 
     92 H92       -70.4583   25.9099  -75.4275 H         1 UNK         0.0743 
     93 H93       -70.9121   26.3043  -73.0454 H         1 UNK         0.0784 
     94 H94       -72.4493   27.0704  -73.4064 H         1 UNK         0.0784 
     95 H95       -72.2244   25.3484  -73.7138 H         1 UNK         0.0784 
     96 H96       -73.2743   26.4900  -75.7450 H         1 UNK         0.3213 
     97 H97       -73.3339   26.9207  -79.1481 H         1 UNK         0.0855 
     98 H98       -73.4960   24.0016  -78.2334 H         1 UNK         0.0814 
     99 H99       -72.6205   24.6203  -79.6222 H         1 UNK         0.0814 
    100 H100      -74.3752   24.6754  -79.6069 H         1 UNK         0.0814 
    101 H101      -75.1791   25.6371  -77.2832 H         1 UNK         0.3105 
    102 H102      -76.3706   28.6277  -75.8648 H         1 UNK         0.0547 
    103 H103      -78.5661   28.1744  -76.9008 H         1 UNK         0.0837 
    104 H104      -77.4850   28.8694  -78.0928 H         1 UNK         0.0837 
    105 H105      -77.8176   27.1432  -78.1219 H         1 UNK         0.0837 
    106 H106      -77.5771   26.0830  -75.8586 H         1 UNK         0.3020 
    107 H107      -75.3867   24.3392  -73.7347 H         1 UNK         0.1245 
    108 H108      -77.6294   24.1867  -72.3820 H         1 UNK         0.0781 
    109 H109      -77.8854   25.8424  -72.8485 H         1 UNK         0.0781 
    110 H110      -76.2222   27.4066  -69.7816 H         1 UNK         0.0836 
    111 H111      -77.7771   26.7187  -70.1660 H         1 UNK         0.0836 
    112 H112      -77.9112   23.5134  -74.5736 H         1 UNK         0.3022 
    113 H113      -76.8449   22.1965  -77.7353 H         1 UNK         0.0747 
    114 H114      -77.3655   20.0423  -76.6398 H         1 UNK         0.0793 
    115 H115      -75.8468   20.6902  -76.0425 H         1 UNK         0.0793 
    116 H116      -77.2911   20.7995  -75.0496 H         1 UNK         0.0793 
    117 H117      -78.9942   22.4403  -77.8516 H         1 UNK         0.3047 
    118 H118      -81.1251   22.8795  -77.4528 H         1 UNK         0.0822 
    119 H119      -80.8272   20.3573  -77.2599 H         1 UNK         0.0807 
    120 H120      -82.5071   20.8250  -77.1061 H         1 UNK         0.0807 
    121 H121      -81.5753   20.4062  -75.6703 H         1 UNK         0.0807 
    122 H122      -81.5699   23.3960  -74.6963 H         1 UNK         0.2946 
    123 H123      -84.8791   24.6867  -75.2728 H         1 UNK         0.1144 
    124 H124      -85.2988   23.7087  -73.0284 H         1 UNK         0.0793 
    125 H125      -83.8927   22.6557  -73.1926 H         1 UNK         0.0793 
    126 H126      -85.2851   22.4429  -74.2447 H         1 UNK         0.0793 
    127 H127      -82.9876   24.9580  -73.1163 H         1 UNK         0.2896 
@<TRIPOS>BOND
     1    1    2 1    
     2    1   67 1    
     3    1   68 1    
     4    1   69 1    
     5    2    3 2    
     6    2    4 am   BACKBONE|DICT|INTERRES
     7    4    5 1    
     8    4   70 1    
     9    5    6 1    
    10    5   65 1    
    11    5   71 1    
    12    6    7 1    
    13    6   72 1    
    14    6   73 1    
    15    7    8 1    
    16    8    9 1    
    17    8   74 1    
    18    8   75 1    
    19    9   10 ar   
    20    9   14 ar   
    21   10   11 ar   
    22   10   76 1    
    23   11   12 ar   
    24   11   48 1    
    25   12   13 ar   
    26   12   77 1    
    27   13   14 ar   
    28   13   15 1    
    29   14   78 1    
    30   15   16 1    
    31   15   79 1    
    32   15   80 1    
    33   16   17 1    
    34   17   18 1    
    35   17   81 1    
    36   17   82 1    
    37   18   19 1    
    38   18   22 1    
    39   18   83 1    
    40   19   20 am   BACKBONE|DICT|INTERRES
    41   19   21 2    
    42   20   84 1    
    43   20   85 1    
    44   22   23 am   BACKBONE|DICT|INTERRES
    45   22   86 1    
    46   23   24 2    
    47   23   25 1    
    48   25   26 1    
    49   25   27 1    
    50   25   87 1    
    51   26   88 1    
    52   26   89 1    
    53   26   90 1    
    54   27   28 am   BACKBONE|DICT|INTERRES
    55   27   91 1    
    56   28   29 2    
    57   28   30 1    
    58   30   31 1    
    59   30   32 1    
    60   30   92 1    
    61   31   93 1    
    62   31   94 1    
    63   31   95 1    
    64   32   33 am   BACKBONE|DICT|INTERRES
    65   32   96 1    
    66   33   34 2    
    67   33   35 1    
    68   35   36 1    
    69   35   37 1    
    70   35   97 1    
    71   36   98 1    
    72   36   99 1    
    73   36  100 1    
    74   37   38 am   BACKBONE|DICT|INTERRES
    75   37  101 1    
    76   38   39 2    
    77   38   40 1    
    78   40   41 1    
    79   40   42 1    
    80   40  102 1    
    81   41  103 1    
    82   41  104 1    
    83   41  105 1    
    84   42   43 am   BACKBONE|DICT|INTERRES
    85   42  106 1    
    86   43   44 2    
    87   43   45 1    
    88   45   46 1    
    89   45   49 1    
    90   45  107 1    
    91   46   47 1    
    92   46  108 1    
    93   46  109 1    
    94   47   48 1    
    95   48  110 1    
    96   48  111 1    
    97   49   50 am   BACKBONE|DICT|INTERRES
    98   49  112 1    
    99   50   51 2    
   100   50   52 1    
   101   52   53 1    
   102   52   54 1    
   103   52  113 1    
   104   53  114 1    
   105   53  115 1    
   106   53  116 1    
   107   54   55 am   BACKBONE|DICT|INTERRES
   108   54  117 1    
   109   55   56 2    
   110   55   57 1    
   111   57   58 1    
   112   57   59 1    
   113   57  118 1    
   114   58  119 1    
   115   58  120 1    
   116   58  121 1    
   117   59   60 am   BACKBONE|DICT|INTERRES
   118   59  122 1    
   119   60   61 2    
   120   60   62 1    
   121   62   63 1    
   122   62   64 1    
   123   62  123 1    
   124   63  124 1    
   125   63  125 1    
   126   63  126 1    
   127   64   65 am   BACKBONE|DICT|INTERRES
   128   64  127 1    
   129   65   66 2    
@<TRIPOS>SUBSTRUCTURE
     1 UNK         1 GROUP             0       ****    0 ROOT    
