@<TRIPOS>MOLECULE
3R135
127   129    1
SMALL
USER_CHARGES


@<TRIPOS>ATOM
      1 CA        -81.8421   27.8062  -69.9989 C.3       0 UNK        -0.1998 
      2 C         -82.6469   27.5948  -71.2726 C.2       0 UNK         0.4909 
      3 O         -83.7463   27.0434  -71.2194 O.2       0 UNK        -0.5240 
      4 N         -82.1057   28.0265  -72.4192 N.am      1 UNK        -0.4739 
      5 CA        -82.7209   27.8892  -73.7463 C.3       1 UNK         0.0864 
      6 C6        -82.1951   28.9689  -74.7303 C.3       11 UNK        -0.0881 
      7 S7        -80.4045   28.8551  -75.0721 S.3       11 UNK        -0.2682 
      8 C8        -79.7089   30.1733  -74.0298 C.3       11 UNK         0.0289 
      9 C9        -78.3228   29.7714  -73.5549 C.ar      11 UNK        -0.0687 
     10 C10       -78.1893   28.9520  -72.4304 C.ar      11 UNK        -0.0823 
     11 C11       -76.9305   28.5119  -72.0178 C.ar      11 UNK        -0.0830 
     12 C12       -75.7992   28.9150  -72.7288 C.ar      11 UNK        -0.1021 
     13 C13       -75.9145   29.7356  -73.8533 C.ar      11 UNK        -0.0753 
     14 C14       -77.1809   30.1697  -74.2588 C.ar      11 UNK        -0.0933 
     15 C15       -74.6783   30.0736  -74.6736 C.3       11 UNK         0.0166 
     16 S16       -73.9206   31.6650  -74.2162 S.3       11 UNK        -0.2615 
     17 C17       -73.2260   31.3605  -72.5510 C.3       11 UNK        -0.0865 
     18 CA        -71.7139   30.9813  -72.5747 C.3       10 UNK         0.0862 
     19 C         -71.0064   31.1933  -71.1986 C.2       10 UNK         0.5551 
     20 N         -69.9729   30.4293  -70.8656 N.am      10 UNK        -0.7319 
     21 O         -71.3702   32.0848  -70.4350 O.2       10 UNK        -0.5018 
     22 N         -71.4668   29.6670  -73.1987 N.am      10 UNK        -0.4509 
     23 C         -71.8392   28.4696  -72.7236 C.2       10 UNK         0.4899 
     24 O         -72.4165   28.3149  -71.6470 O.2       10 UNK        -0.4839 
     25 CA        -71.5211   27.2427  -73.6069 C.3       9 UNK         0.0222 
     26 CB        -72.1871   25.9544  -73.0882 C.3       9 UNK        -0.1966 
     27 N         -71.8933   27.4579  -75.0134 N.am      9 UNK        -0.4218 
     28 C         -71.1323   28.1203  -75.8986 C.2       9 UNK         0.5020 
     29 O         -70.0414   28.6084  -75.5952 O.2       9 UNK        -0.5274 
     30 CA        -71.6723   28.3557  -77.3237 C.3       8 UNK         0.0270 
     31 CB        -70.5444   28.3816  -78.3780 C.3       8 UNK        -0.1976 
     32 N         -72.7522   27.4644  -77.7560 N.am      8 UNK        -0.4313 
     33 C         -72.7291   26.1372  -77.9326 C.2       8 UNK         0.5041 
     34 O         -71.7683   25.4242  -77.6377 O.2       8 UNK        -0.5577 
     35 CA        -73.9949   25.5146  -78.5697 C.3       7 UNK         0.0284 
     36 CB        -73.9040   23.9814  -78.6854 C.3       7 UNK        -0.1958 
     37 N         -75.2300   25.8511  -77.8570 N.am      7 UNK        -0.4454 
     38 C         -75.8061   27.0573  -77.7589 C.2       7 UNK         0.5089 
     39 O         -75.4101   28.0548  -78.3638 O.2       7 UNK        -0.5125 
     40 CA        -76.9938   27.1874  -76.7900 C.3       6 UNK         0.0408 
     41 CB        -78.3070   27.0550  -77.5752 C.3       6 UNK        -0.1791 
     42 N         -76.9829   26.2191  -75.6858 N.am      6 UNK        -0.4762 
     43 C         -75.9826   26.0201  -74.8097 C.2       6 UNK         0.5007 
     44 O         -74.9107   26.6269  -74.8448 O.2       6 UNK        -0.5032 
     45 CA        -76.1840   24.8859  -73.7853 C.3       5 UNK         0.0783 
     46 C46       -77.0154   25.3213  -72.5503 C.3       11 UNK        -0.0857 
     47 S47       -75.9576   26.0151  -71.2346 S.3       11 UNK        -0.2512 
     48 C48       -76.7979   27.5798  -70.8215 C.3       11 UNK         0.0225 
     49 N         -76.7752   23.7209  -74.4454 N.am      5 UNK        -0.4615 
     50 C         -76.0725   22.7666  -75.0698 C.2       4 UNK         0.5053 
     51 O         -74.8428   22.7293  -75.0967 O.2       4 UNK        -0.5105 
     52 CA        -76.8687   21.6631  -75.7897 C.3       4 UNK         0.0263 
     53 CB        -77.0473   20.4446  -74.8698 C.3       4 UNK        -0.1981 
     54 N         -78.1821   22.1077  -76.2617 N.am      4 UNK        -0.4224 
     55 C         -78.3747   22.9936  -77.2490 C.2       3 UNK         0.4895 
     56 O         -77.4633   23.5018  -77.9021 O.2       3 UNK        -0.5091 
     57 CA        -79.8305   23.4082  -77.5305 C.3       3 UNK         0.0250 
     58 CB        -80.4658   22.4617  -78.5615 C.3       3 UNK        -0.1996 
     59 N         -80.6885   23.4815  -76.3396 N.am      3 UNK        -0.4254 
     60 C         -80.4569   24.2488  -75.2650 C.2       2 UNK         0.5004 
     61 O         -79.4316   24.9136  -75.1013 O.2       2 UNK        -0.5226 
     62 CA        -81.5159   24.2315  -74.1559 C.3       2 UNK         0.0269 
     63 CB        -81.0223   23.3977  -72.9621 C.3       2 UNK        -0.1926 
     64 N         -81.7923   25.5947  -73.7049 N.am      2 UNK        -0.4687 
     65 C         -82.6115   26.4566  -74.3256 C.2       1 UNK         0.5165 
     66 O         -83.2792   26.1564  -75.3171 O.2       1 UNK        -0.5079 
     67 H67       -82.4413   28.3404  -69.2618 H         1 UNK         0.0900 
     68 H68       -80.9356   28.3837  -70.1775 H         1 UNK         0.0900 
     69 H69       -81.5556   26.8451  -69.5725 H         1 UNK         0.0900 
     70 H70       -81.1995   28.4684  -72.4131 H         1 UNK         0.2959 
     71 H71       -83.7920   28.0698  -73.6277 H         1 UNK         0.1079 
     72 H72       -82.7237   28.8961  -75.6827 H         1 UNK         0.0837 
     73 H73       -82.4293   29.9642  -74.3494 H         1 UNK         0.0837 
     74 H74       -79.6705   31.1036  -74.5986 H         1 UNK         0.0685 
     75 H75       -80.3518   30.3620  -73.1691 H         1 UNK         0.0685 
     76 H76       -79.0694   28.6326  -71.8924 H         1 UNK         0.1434 
     77 H77       -74.8296   28.5455  -72.4301 H         1 UNK         0.1329 
     78 H78       -77.2801   30.7853  -75.1423 H         1 UNK         0.1335 
     79 H79       -74.9455   30.1073  -75.7309 H         1 UNK         0.0680 
     80 H80       -73.9409   29.2783  -74.5843 H         1 UNK         0.0680 
     81 H81       -73.8082   30.6142  -72.0137 H         1 UNK         0.1032 
     82 H82       -73.3763   32.2893  -71.9983 H         1 UNK         0.1032 
     83 H83       -71.2186   31.6996  -73.2289 H         1 UNK         0.0461 
     84 H84       -69.5118   30.5774  -69.9818 H         1 UNK         0.3453 
     85 H85       -69.6570   29.7020  -71.4867 H         1 UNK         0.3453 
     86 H86       -70.9461   29.6791  -74.0683 H         1 UNK         0.2984 
     87 H87       -70.4421   27.0846  -73.5526 H         1 UNK         0.0554 
     88 H88       -72.0242   25.1152  -73.7648 H         1 UNK         0.0847 
     89 H89       -73.2611   26.0802  -72.9574 H         1 UNK         0.0847 
     90 H90       -71.7801   25.6728  -72.1164 H         1 UNK         0.0847 
     91 H91       -72.8108   27.1271  -75.2929 H         1 UNK         0.3141 
     92 H92       -72.1146   29.3528  -77.2999 H         1 UNK         0.0743 
     93 H93       -70.0118   27.4308  -78.4206 H         1 UNK         0.0784 
     94 H94       -70.9356   28.5921  -79.3734 H         1 UNK         0.0784 
     95 H95       -69.8096   29.1557  -78.1533 H         1 UNK         0.0784 
     96 H96       -73.6276   27.9244  -78.0041 H         1 UNK         0.3213 
     97 H97       -74.0716   25.9208  -79.5803 H         1 UNK         0.0855 
     98 H98       -73.8215   23.5095  -77.7053 H         1 UNK         0.0814 
     99 H99       -73.0315   23.6823  -79.2677 H         1 UNK         0.0814 
    100 H100      -74.7816   23.5673  -79.1828 H         1 UNK         0.0814 
    101 H101      -75.6609   25.1001  -77.3344 H         1 UNK         0.3105 
    102 H102      -76.9559   28.1810  -76.3415 H         1 UNK         0.0547 
    103 H103      -78.4429   27.9042  -78.2458 H         1 UNK         0.0837 
    104 H104      -78.3154   26.1549  -78.1891 H         1 UNK         0.0837 
    105 H105      -79.1738   27.0172  -76.9174 H         1 UNK         0.0837 
    106 H106      -77.8445   25.6929  -75.5494 H         1 UNK         0.3020 
    107 H107      -75.1891   24.5972  -73.4377 H         1 UNK         0.1245 
    108 H108      -77.5152   24.4567  -72.1106 H         1 UNK         0.0781 
    109 H109      -77.8169   26.0100  -72.8242 H         1 UNK         0.0781 
    110 H110      -76.2308   28.0877  -70.0403 H         1 UNK         0.0836 
    111 H111      -77.7746   27.3501  -70.3929 H         1 UNK         0.0836 
    112 H112      -77.7838   23.7254  -74.5321 H         1 UNK         0.3022 
    113 H113      -76.2851   21.3533  -76.6596 H         1 UNK         0.0747 
    114 H114      -77.5393   19.6226  -75.3901 H         1 UNK         0.0793 
    115 H115      -76.0817   20.0737  -74.5227 H         1 UNK         0.0793 
    116 H116      -77.6394   20.6874  -73.9865 H         1 UNK         0.0793 
    117 H117      -78.9915   21.7374  -75.7853 H         1 UNK         0.3047 
    118 H118      -79.8053   24.4078  -77.9660 H         1 UNK         0.0822 
    119 H119      -81.4563   22.8059  -78.8601 H         1 UNK         0.0807 
    120 H120      -80.5645   21.4471  -78.1736 H         1 UNK         0.0807 
    121 H121      -79.8591   22.4068  -79.4667 H         1 UNK         0.0807 
    122 H122      -81.5482   22.9525  -76.3788 H         1 UNK         0.2946 
    123 H123      -82.4381   23.7870  -74.5375 H         1 UNK         0.1144 
    124 H124      -80.8239   22.3671  -73.2593 H         1 UNK         0.0793 
    125 H125      -81.7673   23.3664  -72.1667 H         1 UNK         0.0793 
    126 H126      -80.0998   23.7992  -72.5403 H         1 UNK         0.0793 
    127 H127      -81.2470   25.9365  -72.9282 H         1 UNK         0.2896 
@<TRIPOS>BOND
     1    1    2 1    
     2    1   67 1    
     3    1   68 1    
     4    1   69 1    
     5    2    3 2    
     6    2    4 am   BACKBONE|DICT|INTERRES
     7    4    5 1    
     8    4   70 1    
     9    5    6 1    
    10    5   65 1    
    11    5   71 1    
    12    6    7 1    
    13    6   72 1    
    14    6   73 1    
    15    7    8 1    
    16    8    9 1    
    17    8   74 1    
    18    8   75 1    
    19    9   10 ar   
    20    9   14 ar   
    21   10   11 ar   
    22   10   76 1    
    23   11   12 ar   
    24   11   48 1    
    25   12   13 ar   
    26   12   77 1    
    27   13   14 ar   
    28   13   15 1    
    29   14   78 1    
    30   15   16 1    
    31   15   79 1    
    32   15   80 1    
    33   16   17 1    
    34   17   18 1    
    35   17   81 1    
    36   17   82 1    
    37   18   19 1    
    38   18   22 1    
    39   18   83 1    
    40   19   20 am   BACKBONE|DICT|INTERRES
    41   19   21 2    
    42   20   84 1    
    43   20   85 1    
    44   22   23 am   BACKBONE|DICT|INTERRES
    45   22   86 1    
    46   23   24 2    
    47   23   25 1    
    48   25   26 1    
    49   25   27 1    
    50   25   87 1    
    51   26   88 1    
    52   26   89 1    
    53   26   90 1    
    54   27   28 am   BACKBONE|DICT|INTERRES
    55   27   91 1    
    56   28   29 2    
    57   28   30 1    
    58   30   31 1    
    59   30   32 1    
    60   30   92 1    
    61   31   93 1    
    62   31   94 1    
    63   31   95 1    
    64   32   33 am   BACKBONE|DICT|INTERRES
    65   32   96 1    
    66   33   34 2    
    67   33   35 1    
    68   35   36 1    
    69   35   37 1    
    70   35   97 1    
    71   36   98 1    
    72   36   99 1    
    73   36  100 1    
    74   37   38 am   BACKBONE|DICT|INTERRES
    75   37  101 1    
    76   38   39 2    
    77   38   40 1    
    78   40   41 1    
    79   40   42 1    
    80   40  102 1    
    81   41  103 1    
    82   41  104 1    
    83   41  105 1    
    84   42   43 am   BACKBONE|DICT|INTERRES
    85   42  106 1    
    86   43   44 2    
    87   43   45 1    
    88   45   46 1    
    89   45   49 1    
    90   45  107 1    
    91   46   47 1    
    92   46  108 1    
    93   46  109 1    
    94   47   48 1    
    95   48  110 1    
    96   48  111 1    
    97   49   50 am   BACKBONE|DICT|INTERRES
    98   49  112 1    
    99   50   51 2    
   100   50   52 1    
   101   52   53 1    
   102   52   54 1    
   103   52  113 1    
   104   53  114 1    
   105   53  115 1    
   106   53  116 1    
   107   54   55 am   BACKBONE|DICT|INTERRES
   108   54  117 1    
   109   55   56 2    
   110   55   57 1    
   111   57   58 1    
   112   57   59 1    
   113   57  118 1    
   114   58  119 1    
   115   58  120 1    
   116   58  121 1    
   117   59   60 am   BACKBONE|DICT|INTERRES
   118   59  122 1    
   119   60   61 2    
   120   60   62 1    
   121   62   63 1    
   122   62   64 1    
   123   62  123 1    
   124   63  124 1    
   125   63  125 1    
   126   63  126 1    
   127   64   65 am   BACKBONE|DICT|INTERRES
   128   64  127 1    
   129   65   66 2    
@<TRIPOS>SUBSTRUCTURE
     1 UNK         1 GROUP             0       ****    0 ROOT    
