@<TRIPOS>MOLECULE
3R135
127   129    1
SMALL
USER_CHARGES


@<TRIPOS>ATOM
      1 CA        -85.7519   29.4860  -74.0320 C.3       0 UNK        -0.1998 
      2 C         -84.4455   28.8197  -74.4372 C.2       0 UNK         0.4909 
      3 O         -84.2666   28.4849  -75.6092 O.2       0 UNK        -0.5240 
      4 N         -83.5286   28.6341  -73.4796 N.am      1 UNK        -0.4739 
      5 CA        -82.2350   27.9689  -73.6761 C.3       1 UNK         0.0864 
      6 C6        -81.2519   28.2679  -72.5161 C.3       11 UNK        -0.0881 
      7 S7        -80.9082   30.0536  -72.3376 S.3       11 UNK        -0.2682 
      8 C8        -80.1008   30.1209  -70.7050 C.3       11 UNK         0.0289 
      9 C9        -78.6886   29.5570  -70.7557 C.ar      11 UNK        -0.0687 
     10 C10       -78.4713   28.1968  -70.5259 C.ar      11 UNK        -0.0823 
     11 C11       -77.1896   27.6524  -70.6438 C.ar      11 UNK        -0.0830 
     12 C12       -76.1082   28.4924  -70.9266 C.ar      11 UNK        -0.1021 
     13 C13       -76.3075   29.8609  -71.1294 C.ar      11 UNK        -0.0753 
     14 C14       -77.6020   30.3868  -71.0522 C.ar      11 UNK        -0.0933 
     15 C15       -75.1210   30.7686  -71.4185 C.3       11 UNK         0.0166 
     16 S16       -74.4347   30.4990  -73.0857 S.3       11 UNK        -0.2615 
     17 C17       -73.1357   31.7867  -73.1156 C.3       11 UNK        -0.0865 
     18 CA        -71.6827   31.2619  -72.9628 C.3       10 UNK         0.0862 
     19 C         -71.4264   30.5774  -71.5866 C.2       10 UNK         0.5551 
     20 N         -71.0260   29.3126  -71.5369 N.am      10 UNK        -0.7319 
     21 O         -71.5812   31.2142  -70.5474 O.2       10 UNK        -0.5018 
     22 N         -71.2404   30.4989  -74.1437 N.am      10 UNK        -0.4509 
     23 C         -69.9590   30.3452  -74.5038 C.2       10 UNK         0.4899 
     24 O         -69.0139   30.8268  -73.8765 O.2       10 UNK        -0.4839 
     25 CA        -69.6897   29.5029  -75.7649 C.3       9 UNK         0.0222 
     26 CB        -68.1989   29.4753  -76.1539 C.3       9 UNK        -0.1966 
     27 N         -70.1593   28.1270  -75.5924 N.am      9 UNK        -0.4218 
     28 C         -71.4119   27.7149  -75.8152 C.2       9 UNK         0.5020 
     29 O         -72.3197   28.4656  -76.1799 O.2       9 UNK        -0.5274 
     30 CA        -71.6980   26.2335  -75.5334 C.3       8 UNK         0.0270 
     31 CB        -72.1718   26.0420  -74.0820 C.3       8 UNK        -0.1976 
     32 N         -72.7189   25.7276  -76.4514 N.am      8 UNK        -0.4313 
     33 C         -72.4551   25.2065  -77.6584 C.2       8 UNK         0.5041 
     34 O         -71.3124   25.0740  -78.1009 O.2       8 UNK        -0.5577 
     35 CA        -73.6365   24.7263  -78.5258 C.3       7 UNK         0.0284 
     36 CB        -73.7120   23.1904  -78.5261 C.3       7 UNK        -0.1958 
     37 N         -74.9323   25.2625  -78.1109 N.am      7 UNK        -0.4454 
     38 C         -75.3453   26.5188  -78.3225 C.2       7 UNK         0.5089 
     39 O         -74.7137   27.3480  -78.9776 O.2       7 UNK        -0.5125 
     40 CA        -76.6806   26.9248  -77.6712 C.3       6 UNK         0.0408 
     41 CB        -77.8479   26.6934  -78.6430 C.3       6 UNK        -0.1791 
     42 N         -76.9511   26.2242  -76.4108 N.am      6 UNK        -0.4762 
     43 C         -76.1903   26.3055  -75.3090 C.2       6 UNK         0.5007 
     44 O         -75.1832   27.0037  -75.2323 O.2       6 UNK        -0.5032 
     45 CA        -76.5834   25.4231  -74.1122 C.3       5 UNK         0.0783 
     46 C46       -77.7236   26.0728  -73.3016 C.3       11 UNK        -0.0857 
     47 S47       -78.0273   25.2141  -71.7171 S.3       11 UNK        -0.2512 
     48 C48       -76.9835   26.1471  -70.5408 C.3       11 UNK         0.0225 
     49 N         -76.9159   24.0682  -74.5521 N.am      5 UNK        -0.4615 
     50 C         -76.0201   23.1619  -74.9616 C.2       4 UNK         0.5053 
     51 O         -74.8043   23.3492  -74.9559 O.2       4 UNK        -0.5105 
     52 CA        -76.5788   21.8284  -75.4869 C.3       4 UNK         0.0263 
     53 CB        -76.7237   20.8174  -74.3385 C.3       4 UNK        -0.1981 
     54 N         -77.8676   21.9804  -76.1692 N.am      4 UNK        -0.4224 
     55 C         -78.0360   22.6246  -77.3333 C.2       3 UNK         0.4895 
     56 O         -77.1154   23.1256  -77.9787 O.2       3 UNK        -0.5091 
     57 CA        -79.4840   22.7772  -77.8323 C.3       3 UNK         0.0250 
     58 CB        -79.9429   21.5062  -78.5649 C.3       3 UNK        -0.1996 
     59 N         -80.4374   23.1073  -76.7640 N.am      3 UNK        -0.4254 
     60 C         -80.3848   24.2286  -76.0326 C.2       2 UNK         0.5004 
     61 O         -79.5140   25.0913  -76.1706 O.2       2 UNK        -0.5226 
     62 CA        -81.4420   24.4063  -74.9374 C.3       2 UNK         0.0269 
     63 CB        -81.0983   23.5401  -73.7093 C.3       2 UNK        -0.1926 
     64 N         -81.4721   25.8234  -74.5780 N.am      2 UNK        -0.4687 
     65 C         -82.4164   26.4460  -73.8659 C.2       1 UNK         0.5165 
     66 O         -83.3813   25.8673  -73.3581 O.2       1 UNK        -0.5079 
     67 H67       -85.7687   29.7393  -72.9720 H         1 UNK         0.0900 
     68 H68       -85.8981   30.4032  -74.6018 H         1 UNK         0.0900 
     69 H69       -86.5906   28.8206  -74.2349 H         1 UNK         0.0900 
     70 H70       -83.7310   28.9204  -72.5328 H         1 UNK         0.2959 
     71 H71       -81.8000   28.3634  -74.5976 H         1 UNK         0.1079 
     72 H72       -80.3004   27.7606  -72.6857 H         1 UNK         0.0837 
     73 H73       -81.6445   27.8828  -71.5729 H         1 UNK         0.0837 
     74 H74       -80.0714   31.1589  -70.3706 H         1 UNK         0.0685 
     75 H75       -80.7034   29.5827  -69.9716 H         1 UNK         0.0685 
     76 H76       -79.3089   27.5477  -70.3099 H         1 UNK         0.1434 
     77 H77       -75.1111   28.0826  -71.0164 H         1 UNK         0.1329 
     78 H78       -77.7669   31.4412  -71.2271 H         1 UNK         0.1335 
     79 H79       -74.3452   30.5894  -70.6731 H         1 UNK         0.0680 
     80 H80       -75.4124   31.8151  -71.3152 H         1 UNK         0.0680 
     81 H81       -73.2265   32.3281  -74.0584 H         1 UNK         0.1032 
     82 H82       -73.3414   32.5315  -72.3446 H         1 UNK         0.1032 
     83 H83       -71.0571   32.1566  -72.9368 H         1 UNK         0.0461 
     84 H84       -70.8903   28.7916  -72.3868 H         1 UNK         0.3453 
     85 H85       -70.8554   28.8817  -70.6423 H         1 UNK         0.3453 
     86 H86       -71.9603   30.0368  -74.6879 H         1 UNK         0.2984 
     87 H87       -70.2326   29.9711  -76.5889 H         1 UNK         0.0554 
     88 H88       -67.8198   30.4847  -76.3196 H         1 UNK         0.0847 
     89 H89       -68.0400   28.9177  -77.0771 H         1 UNK         0.0847 
     90 H90       -67.5836   29.0199  -75.3768 H         1 UNK         0.0847 
     91 H91       -69.4801   27.4595  -75.2545 H         1 UNK         0.3141 
     92 H92       -70.7789   25.6588  -75.6679 H         1 UNK         0.0743 
     93 H93       -73.0159   26.6879  -73.8391 H         1 UNK         0.0784 
     94 H94       -72.4746   25.0112  -73.8951 H         1 UNK         0.0784 
     95 H95       -71.3735   26.2784  -73.3777 H         1 UNK         0.0784 
     96 H96       -73.6807   25.9116  -76.1882 H         1 UNK         0.3213 
     97 H97       -73.4424   25.0566  -79.5486 H         1 UNK         0.0855 
     98 H98       -73.9042   22.7967  -77.5276 H         1 UNK         0.0814 
     99 H99       -72.7758   22.7525  -78.8749 H         1 UNK         0.0814 
    100 H100      -74.5027   22.8315  -79.1854 H         1 UNK         0.0814 
    101 H101      -75.5612   24.6272  -77.6330 H         1 UNK         0.3105 
    102 H102      -76.6273   27.9924  -77.4486 H         1 UNK         0.0547 
    103 H103      -77.6926   27.2358  -79.5765 H         1 UNK         0.0837 
    104 H104      -77.9596   25.6381  -78.8930 H         1 UNK         0.0837 
    105 H105      -78.7915   27.0382  -78.2199 H         1 UNK         0.0837 
    106 H106      -77.8012   25.6631  -76.3770 H         1 UNK         0.3020 
    107 H107      -75.7039   25.3630  -73.4662 H         1 UNK         0.1245 
    108 H108      -78.6531   26.0565  -73.8700 H         1 UNK         0.0781 
    109 H109      -77.5170   27.1288  -73.1281 H         1 UNK         0.0781 
    110 H110      -75.9395   25.8858  -70.7206 H         1 UNK         0.0836 
    111 H111      -77.2125   25.8220  -69.5252 H         1 UNK         0.0836 
    112 H112      -77.8972   23.8447  -74.6102 H         1 UNK         0.3022 
    113 H113      -75.8601   21.4301  -76.2066 H         1 UNK         0.0747 
    114 H114      -77.0477   19.8433  -74.7053 H         1 UNK         0.0793 
    115 H115      -75.7708   20.6689  -73.8284 H         1 UNK         0.0793 
    116 H116      -77.4440   21.1530  -73.5910 H         1 UNK         0.0793 
    117 H117      -78.6794   21.5932  -75.7108 H         1 UNK         0.3047 
    118 H118      -79.4944   23.6020  -78.5482 H         1 UNK         0.0822 
    119 H119      -80.9281   21.6401  -79.0121 H         1 UNK         0.0807 
    120 H120      -79.9912   20.6458  -77.8964 H         1 UNK         0.0807 
    121 H121      -79.2551   21.2528  -79.3731 H         1 UNK         0.0807 
    122 H122      -81.1774   22.4413  -76.5918 H         1 UNK         0.2946 
    123 H123      -82.4170   24.1203  -75.3382 H         1 UNK         0.1144 
    124 H124      -81.8411   23.6494  -72.9193 H         1 UNK         0.0793 
    125 H125      -80.1278   23.8035  -73.2899 H         1 UNK         0.0793 
    126 H126      -81.0655   22.4814  -73.9690 H         1 UNK         0.0793 
    127 H127      -80.7153   26.3526  -74.9954 H         1 UNK         0.2896 
@<TRIPOS>BOND
     1    1    2 1    
     2    1   67 1    
     3    1   68 1    
     4    1   69 1    
     5    2    3 2    
     6    2    4 am   BACKBONE|DICT|INTERRES
     7    4    5 1    
     8    4   70 1    
     9    5    6 1    
    10    5   65 1    
    11    5   71 1    
    12    6    7 1    
    13    6   72 1    
    14    6   73 1    
    15    7    8 1    
    16    8    9 1    
    17    8   74 1    
    18    8   75 1    
    19    9   10 ar   
    20    9   14 ar   
    21   10   11 ar   
    22   10   76 1    
    23   11   12 ar   
    24   11   48 1    
    25   12   13 ar   
    26   12   77 1    
    27   13   14 ar   
    28   13   15 1    
    29   14   78 1    
    30   15   16 1    
    31   15   79 1    
    32   15   80 1    
    33   16   17 1    
    34   17   18 1    
    35   17   81 1    
    36   17   82 1    
    37   18   19 1    
    38   18   22 1    
    39   18   83 1    
    40   19   20 am   BACKBONE|DICT|INTERRES
    41   19   21 2    
    42   20   84 1    
    43   20   85 1    
    44   22   23 am   BACKBONE|DICT|INTERRES
    45   22   86 1    
    46   23   24 2    
    47   23   25 1    
    48   25   26 1    
    49   25   27 1    
    50   25   87 1    
    51   26   88 1    
    52   26   89 1    
    53   26   90 1    
    54   27   28 am   BACKBONE|DICT|INTERRES
    55   27   91 1    
    56   28   29 2    
    57   28   30 1    
    58   30   31 1    
    59   30   32 1    
    60   30   92 1    
    61   31   93 1    
    62   31   94 1    
    63   31   95 1    
    64   32   33 am   BACKBONE|DICT|INTERRES
    65   32   96 1    
    66   33   34 2    
    67   33   35 1    
    68   35   36 1    
    69   35   37 1    
    70   35   97 1    
    71   36   98 1    
    72   36   99 1    
    73   36  100 1    
    74   37   38 am   BACKBONE|DICT|INTERRES
    75   37  101 1    
    76   38   39 2    
    77   38   40 1    
    78   40   41 1    
    79   40   42 1    
    80   40  102 1    
    81   41  103 1    
    82   41  104 1    
    83   41  105 1    
    84   42   43 am   BACKBONE|DICT|INTERRES
    85   42  106 1    
    86   43   44 2    
    87   43   45 1    
    88   45   46 1    
    89   45   49 1    
    90   45  107 1    
    91   46   47 1    
    92   46  108 1    
    93   46  109 1    
    94   47   48 1    
    95   48  110 1    
    96   48  111 1    
    97   49   50 am   BACKBONE|DICT|INTERRES
    98   49  112 1    
    99   50   51 2    
   100   50   52 1    
   101   52   53 1    
   102   52   54 1    
   103   52  113 1    
   104   53  114 1    
   105   53  115 1    
   106   53  116 1    
   107   54   55 am   BACKBONE|DICT|INTERRES
   108   54  117 1    
   109   55   56 2    
   110   55   57 1    
   111   57   58 1    
   112   57   59 1    
   113   57  118 1    
   114   58  119 1    
   115   58  120 1    
   116   58  121 1    
   117   59   60 am   BACKBONE|DICT|INTERRES
   118   59  122 1    
   119   60   61 2    
   120   60   62 1    
   121   62   63 1    
   122   62   64 1    
   123   62  123 1    
   124   63  124 1    
   125   63  125 1    
   126   63  126 1    
   127   64   65 am   BACKBONE|DICT|INTERRES
   128   64  127 1    
   129   65   66 2    
@<TRIPOS>SUBSTRUCTURE
     1 UNK         1 GROUP             0       ****    0 ROOT    
