@<TRIPOS>MOLECULE
3R135
127   129    1
SMALL
USER_CHARGES


@<TRIPOS>ATOM
      1 CA        -77.4849   21.4581  -75.0345 C.3       0 UNK        -0.1998 
      2 C         -78.4346   21.7230  -73.8763 C.2       0 UNK         0.4909 
      3 O         -78.8411   20.7854  -73.1895 O.2       0 UNK        -0.5240 
      4 N         -78.7882   22.9937  -73.6525 N.am      1 UNK        -0.4739 
      5 CA        -79.6340   23.4428  -72.5369 C.3       1 UNK         0.0864 
      6 C6        -79.3046   24.9041  -72.1490 C.3       11 UNK        -0.0881 
      7 S7        -77.6234   25.0534  -71.4577 S.3       11 UNK        -0.2682 
      8 C8        -77.8334   26.4468  -70.3064 C.3       11 UNK         0.0289 
      9 C9        -77.8321   27.7730  -71.0494 C.ar      11 UNK        -0.0687 
     10 C10       -79.0113   28.2792  -71.6037 C.ar      11 UNK        -0.0823 
     11 C11       -78.9991   29.4799  -72.3187 C.ar      11 UNK        -0.0830 
     12 C12       -77.8000   30.1883  -72.4560 C.ar      11 UNK        -0.1021 
     13 C13       -76.6175   29.6952  -71.8980 C.ar      11 UNK        -0.0753 
     14 C14       -76.6417   28.4896  -71.1931 C.ar      11 UNK        -0.0933 
     15 C15       -75.3135   30.4615  -72.0493 C.3       11 UNK         0.0166 
     16 S16       -74.3884   29.9077  -73.5129 S.3       11 UNK        -0.2615 
     17 C17       -72.8204   30.8058  -73.2626 C.3       11 UNK        -0.0865 
     18 CA        -72.0420   31.0486  -74.5809 C.3       10 UNK         0.0862 
     19 C         -70.8429   32.0039  -74.3301 C.2       10 UNK         0.5551 
     20 N         -71.0250   33.2984  -74.5526 N.am      10 UNK        -0.7319 
     21 O         -69.7717   31.5910  -73.8908 O.2       10 UNK        -0.5018 
     22 N         -71.6263   29.7900  -75.2237 N.am      10 UNK        -0.4509 
     23 C         -71.1686   29.7115  -76.4834 C.2       10 UNK         0.4899 
     24 O         -71.1050   30.6851  -77.2360 O.2       10 UNK        -0.4839 
     25 CA        -70.7577   28.3270  -77.0304 C.3       9 UNK         0.0222 
     26 CB        -69.6533   28.4111  -78.1063 C.3       9 UNK        -0.1966 
     27 N         -70.4239   27.3399  -75.9990 N.am      9 UNK        -0.4218 
     28 C         -69.3884   27.3541  -75.1437 C.2       9 UNK         0.5020 
     29 O         -68.4898   28.1967  -75.1638 O.2       9 UNK        -0.5274 
     30 CA        -69.3696   26.2336  -74.0769 C.3       8 UNK         0.0270 
     31 CB        -68.5262   26.6027  -72.8373 C.3       8 UNK        -0.1976 
     32 N         -70.7173   25.7952  -73.6790 N.am      8 UNK        -0.4313 
     33 C         -71.6885   26.5760  -73.1840 C.2       8 UNK         0.5041 
     34 O         -71.5407   27.7668  -72.9081 O.2       8 UNK        -0.5577 
     35 CA        -73.0919   25.9559  -73.0902 C.3       7 UNK         0.0284 
     36 CB        -73.6996   26.1834  -71.6975 C.3       7 UNK        -0.1958 
     37 N         -73.9667   26.5462  -74.1089 N.am      7 UNK        -0.4454 
     38 C         -73.7787   26.4352  -75.4316 C.2       7 UNK         0.5089 
     39 O         -72.8958   25.7353  -75.9324 O.2       7 UNK        -0.5125 
     40 CA        -74.7049   27.2568  -76.3402 C.3       6 UNK         0.0408 
     41 CB        -74.6963   26.7697  -77.8039 C.3       6 UNK        -0.1791 
     42 N         -76.0751   27.2646  -75.8306 N.am      6 UNK        -0.4762 
     43 C         -76.9576   28.2514  -76.0297 C.2       6 UNK         0.5007 
     44 O         -76.6882   29.2970  -76.6244 O.2       6 UNK        -0.5032 
     45 CA        -78.4012   27.9840  -75.5560 C.3       5 UNK         0.0783 
     46 C46       -79.2472   29.2823  -75.4855 C.3       11 UNK        -0.0857 
     47 S47       -80.7302   29.0518  -74.4507 S.3       11 UNK        -0.2512 
     48 C48       -80.2796   29.9996  -72.9585 C.3       11 UNK         0.0225 
     49 N         -79.0186   27.0121  -76.4614 N.am      5 UNK        -0.4615 
     50 C         -78.7939   25.6958  -76.4825 C.2       4 UNK         0.5053 
     51 O         -78.1596   25.0944  -75.6116 O.2       4 UNK        -0.5105 
     52 CA        -79.3689   24.9393  -77.6944 C.3       4 UNK         0.0263 
     53 CB        -78.7596   23.5348  -77.8521 C.3       4 UNK        -0.1981 
     54 N         -80.8213   24.8126  -77.6125 N.am      4 UNK        -0.4224 
     55 C         -81.7223   25.7862  -77.8119 C.2       3 UNK         0.4895 
     56 O         -81.4289   26.9250  -78.1786 O.2       3 UNK        -0.5091 
     57 CA        -83.1987   25.4243  -77.5470 C.3       3 UNK         0.0250 
     58 CB        -83.9231   25.1120  -78.8664 C.3       3 UNK        -0.1996 
     59 N         -83.3348   24.2812  -76.6349 N.am      3 UNK        -0.4254 
     60 C         -83.0491   24.3344  -75.3258 C.2       2 UNK         0.5004 
     61 O         -82.8460   25.3888  -74.7221 O.2       2 UNK        -0.5226 
     62 CA        -82.8814   23.0000  -74.5779 C.3       2 UNK         0.0269 
     63 CB        -83.1293   21.7450  -75.4417 C.3       2 UNK        -0.1926 
     64 N         -81.5109   22.9587  -74.0657 N.am      2 UNK        -0.4687 
     65 C         -81.1447   23.2871  -72.8204 C.2       1 UNK         0.5165 
     66 O         -81.9486   23.4831  -71.9069 O.2       1 UNK        -0.5079 
     67 H67       -76.6270   20.8811  -74.6904 H         1 UNK         0.0900 
     68 H68       -77.1115   22.3841  -75.4721 H         1 UNK         0.0900 
     69 H69       -77.9890   20.8871  -75.8135 H         1 UNK         0.0900 
     70 H70       -78.4348   23.7313  -74.2582 H         1 UNK         0.2959 
     71 H71       -79.4281   22.8119  -71.6690 H         1 UNK         0.1079 
     72 H72       -79.3966   25.5674  -73.0116 H         1 UNK         0.0837 
     73 H73       -80.0143   25.2685  -71.4040 H         1 UNK         0.0837 
     74 H74       -78.7516   26.3297  -69.7291 H         1 UNK         0.0685 
     75 H75       -77.0175   26.4252  -69.5824 H         1 UNK         0.0685 
     76 H76       -79.9365   27.7296  -71.4999 H         1 UNK         0.1434 
     77 H77       -77.7815   31.1186  -73.0074 H         1 UNK         0.1329 
     78 H78       -75.7310   28.1061  -70.7573 H         1 UNK         0.1335 
     79 H79       -75.5107   31.5318  -72.1279 H         1 UNK         0.0680 
     80 H80       -74.6981   30.3236  -71.1587 H         1 UNK         0.0680 
     81 H81       -72.2073   30.2564  -72.5462 H         1 UNK         0.1032 
     82 H82       -73.0518   31.7615  -72.7878 H         1 UNK         0.1032 
     83 H83       -72.7245   31.5474  -75.2727 H         1 UNK         0.0461 
     84 H84       -70.2648   33.9375  -74.3793 H         1 UNK         0.3453 
     85 H85       -71.9024   33.6485  -74.9051 H         1 UNK         0.3453 
     86 H86       -71.6025   28.9756  -74.6195 H         1 UNK         0.2984 
     87 H87       -71.6491   27.9368  -77.5218 H         1 UNK         0.0554 
     88 H88       -69.3893   27.4234  -78.4839 H         1 UNK         0.0847 
     89 H89       -68.7463   28.8779  -77.7214 H         1 UNK         0.0847 
     90 H90       -69.9825   29.0037  -78.9607 H         1 UNK         0.0847 
     91 H91       -71.1135   26.6011  -75.8865 H         1 UNK         0.3141 
     92 H92       -68.8960   25.3741  -74.5536 H         1 UNK         0.0743 
     93 H93       -68.9025   27.5005  -72.3455 H         1 UNK         0.0784 
     94 H94       -68.5219   25.7955  -72.1050 H         1 UNK         0.0784 
     95 H95       -67.4883   26.7946  -73.1123 H         1 UNK         0.0784 
     96 H96       -70.9518   24.8405  -73.9177 H         1 UNK         0.3213 
     97 H97       -73.0321   24.8803  -73.2693 H         1 UNK         0.0855 
     98 H98       -73.7418   27.2442  -71.4492 H         1 UNK         0.0814 
     99 H99       -73.1005   25.6949  -70.9283 H         1 UNK         0.0814 
    100 H100      -74.7084   25.7776  -71.6303 H         1 UNK         0.0814 
    101 H101      -74.6613   27.2039  -73.7824 H         1 UNK         0.3105 
    102 H102      -74.3107   28.2752  -76.3175 H         1 UNK         0.0547 
    103 H103      -73.6890   26.7781  -78.2210 H         1 UNK         0.0837 
    104 H104      -75.0759   25.7508  -77.8871 H         1 UNK         0.0837 
    105 H105      -75.3091   27.4082  -78.4401 H         1 UNK         0.0837 
    106 H106      -76.3970   26.4100  -75.3878 H         1 UNK         0.3020 
    107 H107      -78.3346   27.5550  -74.5529 H         1 UNK         0.1245 
    108 H108      -79.5605   29.5965  -76.4828 H         1 UNK         0.0781 
    109 H109      -78.6678   30.1170  -75.0892 H         1 UNK         0.0781 
    110 H110      -81.0972   29.9386  -72.2388 H         1 UNK         0.0836 
    111 H111      -80.1820   31.0549  -73.2186 H         1 UNK         0.0836 
    112 H112      -79.6187   27.3942  -77.1832 H         1 UNK         0.3022 
    113 H113      -79.1172   25.5126  -78.5894 H         1 UNK         0.0747 
    114 H114      -79.0823   23.0666  -78.7822 H         1 UNK         0.0793 
    115 H115      -77.6698   23.5796  -77.8755 H         1 UNK         0.0793 
    116 H116      -79.0451   22.8771  -77.0317 H         1 UNK         0.0793 
    117 H117      -81.1703   23.9134  -77.3206 H         1 UNK         0.3047 
    118 H118      -83.6747   26.2948  -77.0899 H         1 UNK         0.0822 
    119 H119      -84.9817   24.9111  -78.7000 H         1 UNK         0.0807 
    120 H120      -83.4914   24.2474  -79.3721 H         1 UNK         0.0807 
    121 H121      -83.8598   25.9566  -79.5542 H         1 UNK         0.0807 
    122 H122      -83.5282   23.3825  -77.0540 H         1 UNK         0.2946 
    123 H123      -83.6025   22.9985  -73.7571 H         1 UNK         0.1144 
    124 H124      -84.1460   21.7290  -75.8370 H         1 UNK         0.0793 
    125 H125      -83.0107   20.8391  -74.8466 H         1 UNK         0.0793 
    126 H126      -82.4369   21.6731  -76.2814 H         1 UNK         0.0793 
    127 H127      -80.7722   22.8245  -74.7399 H         1 UNK         0.2896 
@<TRIPOS>BOND
     1    1    2 1    
     2    1   67 1    
     3    1   68 1    
     4    1   69 1    
     5    2    3 2    
     6    2    4 am   BACKBONE|DICT|INTERRES
     7    4    5 1    
     8    4   70 1    
     9    5    6 1    
    10    5   65 1    
    11    5   71 1    
    12    6    7 1    
    13    6   72 1    
    14    6   73 1    
    15    7    8 1    
    16    8    9 1    
    17    8   74 1    
    18    8   75 1    
    19    9   10 ar   
    20    9   14 ar   
    21   10   11 ar   
    22   10   76 1    
    23   11   12 ar   
    24   11   48 1    
    25   12   13 ar   
    26   12   77 1    
    27   13   14 ar   
    28   13   15 1    
    29   14   78 1    
    30   15   16 1    
    31   15   79 1    
    32   15   80 1    
    33   16   17 1    
    34   17   18 1    
    35   17   81 1    
    36   17   82 1    
    37   18   19 1    
    38   18   22 1    
    39   18   83 1    
    40   19   20 am   BACKBONE|DICT|INTERRES
    41   19   21 2    
    42   20   84 1    
    43   20   85 1    
    44   22   23 am   BACKBONE|DICT|INTERRES
    45   22   86 1    
    46   23   24 2    
    47   23   25 1    
    48   25   26 1    
    49   25   27 1    
    50   25   87 1    
    51   26   88 1    
    52   26   89 1    
    53   26   90 1    
    54   27   28 am   BACKBONE|DICT|INTERRES
    55   27   91 1    
    56   28   29 2    
    57   28   30 1    
    58   30   31 1    
    59   30   32 1    
    60   30   92 1    
    61   31   93 1    
    62   31   94 1    
    63   31   95 1    
    64   32   33 am   BACKBONE|DICT|INTERRES
    65   32   96 1    
    66   33   34 2    
    67   33   35 1    
    68   35   36 1    
    69   35   37 1    
    70   35   97 1    
    71   36   98 1    
    72   36   99 1    
    73   36  100 1    
    74   37   38 am   BACKBONE|DICT|INTERRES
    75   37  101 1    
    76   38   39 2    
    77   38   40 1    
    78   40   41 1    
    79   40   42 1    
    80   40  102 1    
    81   41  103 1    
    82   41  104 1    
    83   41  105 1    
    84   42   43 am   BACKBONE|DICT|INTERRES
    85   42  106 1    
    86   43   44 2    
    87   43   45 1    
    88   45   46 1    
    89   45   49 1    
    90   45  107 1    
    91   46   47 1    
    92   46  108 1    
    93   46  109 1    
    94   47   48 1    
    95   48  110 1    
    96   48  111 1    
    97   49   50 am   BACKBONE|DICT|INTERRES
    98   49  112 1    
    99   50   51 2    
   100   50   52 1    
   101   52   53 1    
   102   52   54 1    
   103   52  113 1    
   104   53  114 1    
   105   53  115 1    
   106   53  116 1    
   107   54   55 am   BACKBONE|DICT|INTERRES
   108   54  117 1    
   109   55   56 2    
   110   55   57 1    
   111   57   58 1    
   112   57   59 1    
   113   57  118 1    
   114   58  119 1    
   115   58  120 1    
   116   58  121 1    
   117   59   60 am   BACKBONE|DICT|INTERRES
   118   59  122 1    
   119   60   61 2    
   120   60   62 1    
   121   62   63 1    
   122   62   64 1    
   123   62  123 1    
   124   63  124 1    
   125   63  125 1    
   126   63  126 1    
   127   64   65 am   BACKBONE|DICT|INTERRES
   128   64  127 1    
   129   65   66 2    
@<TRIPOS>SUBSTRUCTURE
     1 UNK         1 GROUP             0       ****    0 ROOT    
