@<TRIPOS>MOLECULE
3R135
127   129    1
SMALL
USER_CHARGES


@<TRIPOS>ATOM
      1 CA        -84.8166   30.3253  -73.9338 C.3       0 UNK        -0.1998 
      2 C         -83.5593   29.5381  -74.2720 C.2       0 UNK         0.4909 
      3 O         -83.3048   29.2653  -75.4460 O.2       0 UNK        -0.5240 
      4 N         -82.7671   29.1802  -73.2540 N.am      1 UNK        -0.4739 
      5 CA        -81.5415   28.3829  -73.3838 C.3       1 UNK         0.0864 
      6 C6        -80.6691   28.4547  -72.1037 C.3       11 UNK        -0.0881 
      7 S7        -80.2057   30.1683  -71.6637 S.3       11 UNK        -0.2682 
      8 C8        -79.3326   29.9376  -70.0790 C.3       11 UNK         0.0289 
      9 C9        -77.9734   29.2890  -70.2879 C.ar      11 UNK        -0.0687 
     10 C10       -77.8398   27.9026  -70.1945 C.ar      11 UNK        -0.0823 
     11 C11       -76.6246   27.2854  -70.5008 C.ar      11 UNK        -0.0830 
     12 C12       -75.5212   28.0702  -70.8509 C.ar      11 UNK        -0.1021 
     13 C13       -75.6316   29.4629  -70.9126 C.ar      11 UNK        -0.0753 
     14 C14       -76.8605   30.0669  -70.6221 C.ar      11 UNK        -0.0933 
     15 C15       -74.4260   30.3039  -71.3213 C.3       11 UNK         0.0166 
     16 S16       -74.7703   31.3986  -72.7393 S.3       11 UNK        -0.2615 
     17 C17       -75.1956   30.1986  -74.0512 C.3       11 UNK        -0.0865 
     18 CA        -74.2093   30.1079  -75.2519 C.3       10 UNK         0.0862 
     19 C         -74.0663   31.4193  -76.0846 C.2       10 UNK         0.5551 
     20 N         -72.9331   31.6769  -76.7256 N.am      10 UNK        -0.7319 
     21 O         -75.0153   32.1913  -76.2004 O.2       10 UNK        -0.5018 
     22 N         -72.9789   29.3522  -74.9485 N.am      10 UNK        -0.4509 
     23 C         -71.8681   29.7839  -74.3373 C.2       10 UNK         0.4899 
     24 O         -71.7154   30.9298  -73.9153 O.2       10 UNK        -0.4839 
     25 CA        -70.6849   28.7999  -74.2340 C.3       9 UNK         0.0222 
     26 CB        -69.9378   28.9231  -72.8878 C.3       9 UNK        -0.1966 
     27 N         -70.9974   27.3976  -74.5461 N.am      9 UNK        -0.4218 
     28 C         -71.7046   26.5218  -73.8194 C.2       9 UNK         0.5020 
     29 O         -72.3008   26.8072  -72.7790 O.2       9 UNK        -0.5274 
     30 CA        -71.7080   25.0706  -74.3446 C.3       8 UNK         0.0270 
     31 CB        -72.3099   24.0750  -73.3355 C.3       8 UNK        -0.1976 
     32 N         -72.3936   24.9246  -75.6326 N.am      8 UNK        -0.4313 
     33 C         -71.9102   25.3082  -76.8227 C.2       8 UNK         0.5041 
     34 O         -70.8241   25.8739  -76.9633 O.2       8 UNK        -0.5577 
     35 CA        -72.7805   25.0222  -78.0579 C.3       7 UNK         0.0284 
     36 CB        -72.7585   23.5271  -78.4171 C.3       7 UNK        -0.1958 
     37 N         -74.1601   25.4618  -77.8525 N.am      7 UNK        -0.4454 
     38 C         -74.5793   26.7262  -78.0047 C.2       7 UNK         0.5089 
     39 O         -73.8786   27.6346  -78.4516 O.2       7 UNK        -0.5125 
     40 CA        -76.0151   27.0440  -77.5425 C.3       6 UNK         0.0408 
     41 CB        -77.0172   26.8240  -78.6858 C.3       6 UNK        -0.1791 
     42 N         -76.4332   26.2763  -76.3650 N.am      6 UNK        -0.4762 
     43 C         -75.7961   26.2759  -75.1844 C.2       6 UNK         0.5007 
     44 O         -74.8085   26.9650  -74.9457 O.2       6 UNK        -0.5032 
     45 CA        -76.3035   25.3075  -74.1034 C.3       5 UNK         0.0783 
     46 C46       -77.3967   25.9705  -73.2428 C.3       11 UNK        -0.0857 
     47 S47       -77.7214   25.0282  -71.7127 S.3       11 UNK        -0.2512 
     48 C48       -76.5299   25.7665  -70.5391 C.3       11 UNK         0.0225 
     49 N         -76.7413   24.0266  -74.6634 N.am      5 UNK        -0.4615 
     50 C         -75.9502   23.1530  -75.2986 C.2       4 UNK         0.5053 
     51 O         -74.7459   23.3266  -75.4819 O.2       4 UNK        -0.5105 
     52 CA        -76.6341   21.8971  -75.8603 C.3       4 UNK         0.0263 
     53 CB        -76.8473   20.8536  -74.7522 C.3       4 UNK        -0.1981 
     54 N         -77.9154   22.2152  -76.4963 N.am      4 UNK        -0.4224 
     55 C         -78.0327   22.8923  -77.6481 C.2       3 UNK         0.4895 
     56 O         -77.0743   23.2345  -78.3408 O.2       3 UNK        -0.5091 
     57 CA        -79.4569   23.2829  -78.0832 C.3       3 UNK         0.0250 
     58 CB        -80.1015   22.1525  -78.9013 C.3       3 UNK        -0.1996 
     59 N         -80.3360   23.6450  -76.9631 N.am      3 UNK        -0.4254 
     60 C         -80.1390   24.6991  -76.1596 C.2       2 UNK         0.5004 
     61 O         -79.1835   25.4719  -76.2681 O.2       2 UNK        -0.5226 
     62 CA        -81.1438   24.9023  -75.0192 C.3       2 UNK         0.0269 
     63 CB        -80.8923   23.8854  -73.8874 C.3       2 UNK        -0.1926 
     64 N         -81.0065   26.2720  -74.5228 N.am      2 UNK        -0.4687 
     65 C         -81.8783   26.9170  -73.7399 C.2       1 UNK         0.5165 
     66 O         -82.9032   26.3967  -73.2898 O.2       1 UNK        -0.5079 
     67 H67       -84.8049   31.2885  -74.4432 H         1 UNK         0.0900 
     68 H68       -85.7006   29.7776  -74.2594 H         1 UNK         0.0900 
     69 H69       -84.9068   30.5091  -72.8633 H         1 UNK         0.0900 
     70 H70       -83.0268   29.4250  -72.3094 H         1 UNK         0.2959 
     71 H71       -80.9639   28.8029  -74.2108 H         1 UNK         0.1079 
     72 H72       -81.1891   28.0030  -71.2564 H         1 UNK         0.0837 
     73 H73       -79.7524   27.8801  -72.2468 H         1 UNK         0.0837 
     74 H74       -79.9472   29.3415  -69.4025 H         1 UNK         0.0685 
     75 H75       -79.2057   30.9099  -69.6007 H         1 UNK         0.0685 
     76 H76       -78.6997   27.2951  -69.9469 H         1 UNK         0.1434 
     77 H77       -74.5824   27.5958  -71.1065 H         1 UNK         0.1329 
     78 H78       -76.9601   31.1413  -70.6956 H         1 UNK         0.1335 
     79 H79       -74.1166   30.9139  -70.4720 H         1 UNK         0.0680 
     80 H80       -73.5745   29.6689  -71.5734 H         1 UNK         0.0680 
     81 H81       -76.1898   30.4602  -74.4170 H         1 UNK         0.1032 
     82 H82       -75.3133   29.2074  -73.6132 H         1 UNK         0.1032 
     83 H83       -74.7058   29.4526  -75.9654 H         1 UNK         0.0461 
     84 H84       -72.1491   31.0508  -76.6411 H         1 UNK         0.3453 
     85 H85       -72.8550   32.5171  -77.2762 H         1 UNK         0.3453 
     86 H86       -73.0197   28.3762  -75.2117 H         1 UNK         0.2984 
     87 H87       -69.9870   29.1110  -75.0126 H         1 UNK         0.0554 
     88 H88       -69.5471   29.9315  -72.7463 H         1 UNK         0.0847 
     89 H89       -69.0894   28.2408  -72.8384 H         1 UNK         0.0847 
     90 H90       -70.5912   28.7105  -72.0411 H         1 UNK         0.0847 
     91 H91       -70.6275   27.0451  -75.4273 H         1 UNK         0.3141 
     92 H92       -70.6633   24.7853  -74.4871 H         1 UNK         0.0743 
     93 H93       -71.7772   24.1135  -72.3845 H         1 UNK         0.0784 
     94 H94       -73.3571   24.2898  -73.1293 H         1 UNK         0.0784 
     95 H95       -72.2457   23.0503  -73.7019 H         1 UNK         0.0784 
     96 H96       -73.2949   24.4511  -75.6057 H         1 UNK         0.3213 
     97 H97       -72.3550   25.5725  -78.9003 H         1 UNK         0.0855 
     98 H98       -73.1775   22.9073  -77.6240 H         1 UNK         0.0814 
     99 H99       -71.7377   23.1849  -78.5926 H         1 UNK         0.0814 
    100 H100      -73.3263   23.3316  -79.3269 H         1 UNK         0.0814 
    101 H101      -74.8060   24.7879  -77.4628 H         1 UNK         0.3105 
    102 H102      -76.0508   28.0993  -77.2692 H         1 UNK         0.0547 
    103 H103      -78.0303   27.0905  -78.3838 H         1 UNK         0.0837 
    104 H104      -77.0293   25.7868  -79.0197 H         1 UNK         0.0837 
    105 H105      -76.7632   27.4400  -79.5493 H         1 UNK         0.0837 
    106 H106      -77.2952   25.7424  -76.4478 H         1 UNK         0.3020 
    107 H107      -75.4483   25.1063  -73.4569 H         1 UNK         0.1245 
    108 H108      -78.3289   26.0406  -73.8009 H         1 UNK         0.0781 
    109 H109      -77.1346   27.0007  -73.0010 H         1 UNK         0.0781 
    110 H110      -75.5231   25.4471  -70.8133 H         1 UNK         0.0836 
    111 H111      -76.7186   25.3690  -69.5410 H         1 UNK         0.0836 
    112 H112      -77.7224   23.8157  -74.5729 H         1 UNK         0.3022 
    113 H113      -75.9722   21.4654  -76.6143 H         1 UNK         0.0747 
    114 H114      -77.2692   19.9315  -75.1526 H         1 UNK         0.0793 
    115 H115      -75.9007   20.5945  -74.2756 H         1 UNK         0.0793 
    116 H116      -77.5160   21.2178  -73.9711 H         1 UNK         0.0793 
    117 H117      -78.7559   21.9522  -76.0032 H         1 UNK         0.3047 
    118 H118      -79.3675   24.1601  -78.7282 H         1 UNK         0.0822 
    119 H119      -81.0703   22.4538  -79.3002 H         1 UNK         0.0807 
    120 H120      -80.2487   21.2517  -78.3041 H         1 UNK         0.0807 
    121 H121      -79.4744   21.8806  -79.7518 H         1 UNK         0.0807 
    122 H122      -81.1413   23.0544  -76.8096 H         1 UNK         0.2946 
    123 H123      -82.1523   24.7722  -75.4184 H         1 UNK         0.1144 
    124 H124      -79.8924   23.9880  -73.4674 H         1 UNK         0.0793 
    125 H125      -80.9921   22.8604  -74.2462 H         1 UNK         0.0793 
    126 H126      -81.6064   24.0052  -73.0729 H         1 UNK         0.0793 
    127 H127      -80.1993   26.7553  -74.8990 H         1 UNK         0.2896 
@<TRIPOS>BOND
     1    1    2 1    
     2    1   67 1    
     3    1   68 1    
     4    1   69 1    
     5    2    3 2    
     6    2    4 am   BACKBONE|DICT|INTERRES
     7    4    5 1    
     8    4   70 1    
     9    5    6 1    
    10    5   65 1    
    11    5   71 1    
    12    6    7 1    
    13    6   72 1    
    14    6   73 1    
    15    7    8 1    
    16    8    9 1    
    17    8   74 1    
    18    8   75 1    
    19    9   10 ar   
    20    9   14 ar   
    21   10   11 ar   
    22   10   76 1    
    23   11   12 ar   
    24   11   48 1    
    25   12   13 ar   
    26   12   77 1    
    27   13   14 ar   
    28   13   15 1    
    29   14   78 1    
    30   15   16 1    
    31   15   79 1    
    32   15   80 1    
    33   16   17 1    
    34   17   18 1    
    35   17   81 1    
    36   17   82 1    
    37   18   19 1    
    38   18   22 1    
    39   18   83 1    
    40   19   20 am   BACKBONE|DICT|INTERRES
    41   19   21 2    
    42   20   84 1    
    43   20   85 1    
    44   22   23 am   BACKBONE|DICT|INTERRES
    45   22   86 1    
    46   23   24 2    
    47   23   25 1    
    48   25   26 1    
    49   25   27 1    
    50   25   87 1    
    51   26   88 1    
    52   26   89 1    
    53   26   90 1    
    54   27   28 am   BACKBONE|DICT|INTERRES
    55   27   91 1    
    56   28   29 2    
    57   28   30 1    
    58   30   31 1    
    59   30   32 1    
    60   30   92 1    
    61   31   93 1    
    62   31   94 1    
    63   31   95 1    
    64   32   33 am   BACKBONE|DICT|INTERRES
    65   32   96 1    
    66   33   34 2    
    67   33   35 1    
    68   35   36 1    
    69   35   37 1    
    70   35   97 1    
    71   36   98 1    
    72   36   99 1    
    73   36  100 1    
    74   37   38 am   BACKBONE|DICT|INTERRES
    75   37  101 1    
    76   38   39 2    
    77   38   40 1    
    78   40   41 1    
    79   40   42 1    
    80   40  102 1    
    81   41  103 1    
    82   41  104 1    
    83   41  105 1    
    84   42   43 am   BACKBONE|DICT|INTERRES
    85   42  106 1    
    86   43   44 2    
    87   43   45 1    
    88   45   46 1    
    89   45   49 1    
    90   45  107 1    
    91   46   47 1    
    92   46  108 1    
    93   46  109 1    
    94   47   48 1    
    95   48  110 1    
    96   48  111 1    
    97   49   50 am   BACKBONE|DICT|INTERRES
    98   49  112 1    
    99   50   51 2    
   100   50   52 1    
   101   52   53 1    
   102   52   54 1    
   103   52  113 1    
   104   53  114 1    
   105   53  115 1    
   106   53  116 1    
   107   54   55 am   BACKBONE|DICT|INTERRES
   108   54  117 1    
   109   55   56 2    
   110   55   57 1    
   111   57   58 1    
   112   57   59 1    
   113   57  118 1    
   114   58  119 1    
   115   58  120 1    
   116   58  121 1    
   117   59   60 am   BACKBONE|DICT|INTERRES
   118   59  122 1    
   119   60   61 2    
   120   60   62 1    
   121   62   63 1    
   122   62   64 1    
   123   62  123 1    
   124   63  124 1    
   125   63  125 1    
   126   63  126 1    
   127   64   65 am   BACKBONE|DICT|INTERRES
   128   64  127 1    
   129   65   66 2    
@<TRIPOS>SUBSTRUCTURE
     1 UNK         1 GROUP             0       ****    0 ROOT    
