@<TRIPOS>MOLECULE
3R135
127   129    1
SMALL
USER_CHARGES


@<TRIPOS>ATOM
      1 CA        -79.5781   31.1506  -78.3687 C.3       0 UNK        -0.1998 
      2 C         -79.3648   29.6994  -77.9654 C.2       0 UNK         0.4909 
      3 O         -79.3895   28.8157  -78.8213 O.2       0 UNK        -0.5240 
      4 N         -79.1389   29.4520  -76.6710 N.am      1 UNK        -0.4739 
      5 CA        -78.9720   28.1201  -76.0833 C.3       1 UNK         0.0864 
      6 C6        -78.2723   28.2011  -74.7013 C.3       11 UNK        -0.0881 
      7 S7        -79.1039   29.3037  -73.4997 S.3       11 UNK        -0.2682 
      8 C8        -79.2279   28.2335  -72.0299 C.3       11 UNK         0.0289 
      9 C9        -77.8530   27.8895  -71.4747 C.ar      11 UNK        -0.0687 
     10 C10       -77.3663   26.5814  -71.5465 C.ar      11 UNK        -0.0823 
     11 C11       -76.0765   26.2782  -71.0980 C.ar      11 UNK        -0.0830 
     12 C12       -75.2766   27.2925  -70.5631 C.ar      11 UNK        -0.1021 
     13 C13       -75.7597   28.6014  -70.4715 C.ar      11 UNK        -0.0753 
     14 C14       -77.0536   28.8899  -70.9147 C.ar      11 UNK        -0.0933 
     15 C15       -74.8738   29.7121  -69.9304 C.3       11 UNK         0.0166 
     16 S16       -74.4072   30.8545  -71.2663 S.3       11 UNK        -0.2615 
     17 C17       -72.7714   31.4552  -70.7090 C.3       11 UNK        -0.0865 
     18 CA        -71.5657   30.7090  -71.3512 C.3       10 UNK         0.0862 
     19 C         -71.2079   29.4003  -70.5927 C.2       10 UNK         0.5551 
     20 N         -70.5805   29.5176  -69.4302 N.am      10 UNK        -0.7319 
     21 O         -71.5132   28.2901  -71.0238 O.2       10 UNK        -0.5018 
     22 N         -71.7838   30.4927  -72.7851 N.am      10 UNK        -0.4509 
     23 C         -70.8515   30.2396  -73.7074 C.2       10 UNK         0.4899 
     24 O         -69.6415   30.2763  -73.4800 O.2       10 UNK        -0.4839 
     25 CA        -71.3436   29.8754  -75.1245 C.3       9 UNK         0.0222 
     26 CB        -70.8261   28.4871  -75.5394 C.3       9 UNK        -0.1966 
     27 N         -72.8039   29.8870  -75.2721 N.am      9 UNK        -0.4218 
     28 C         -73.5809   30.9705  -75.3903 C.2       9 UNK         0.5020 
     29 O         -73.1479   32.1236  -75.4128 O.2       9 UNK        -0.5274 
     30 CA        -75.0942   30.7003  -75.5158 C.3       8 UNK         0.0270 
     31 CB        -75.9411   31.9843  -75.4486 C.3       8 UNK        -0.1976 
     32 N         -75.4144   29.9804  -76.7522 N.am      8 UNK        -0.4313 
     33 C         -75.1999   28.6758  -76.9552 C.2       8 UNK         0.5041 
     34 O         -74.7125   27.9229  -76.1054 O.2       8 UNK        -0.5577 
     35 CA        -75.5610   28.1230  -78.3363 C.3       7 UNK         0.0284 
     36 CB        -74.4829   28.4768  -79.3763 C.3       7 UNK        -0.1958 
     37 N         -75.6722   26.6764  -78.2096 N.am      7 UNK        -0.4454 
     38 C         -76.4250   25.8686  -78.9610 C.2       7 UNK         0.5089 
     39 O         -77.0723   26.2509  -79.9360 O.2       7 UNK        -0.5125 
     40 CA        -76.4581   24.3756  -78.5768 C.3       6 UNK         0.0408 
     41 CB        -75.6985   23.5382  -79.6192 C.3       6 UNK        -0.1791 
     42 N         -75.9240   24.0703  -77.2424 N.am      6 UNK        -0.4762 
     43 C         -76.5219   24.4003  -76.0900 C.2       6 UNK         0.5007 
     44 O         -77.5512   25.0738  -76.0164 O.2       6 UNK        -0.5032 
     45 CA        -75.8700   23.9139  -74.7912 C.3       5 UNK         0.0783 
     46 C46       -75.2555   25.1148  -74.0283 C.3       11 UNK        -0.0857 
     47 S47       -74.3215   24.6449  -72.5329 S.3       11 UNK        -0.2512 
     48 C48       -75.5467   24.8547  -71.1984 C.3       11 UNK         0.0225 
     49 N         -76.9357   23.2401  -74.0513 N.am      5 UNK        -0.4615 
     50 C         -76.8363   22.0423  -73.4659 C.2       4 UNK         0.5053 
     51 O         -75.7933   21.3920  -73.3968 O.2       4 UNK        -0.5105 
     52 CA        -78.1262   21.4639  -72.8604 C.3       4 UNK         0.0263 
     53 CB        -78.4012   22.0686  -71.4736 C.3       4 UNK        -0.1981 
     54 N         -79.3018   21.6522  -73.7157 N.am      4 UNK        -0.4224 
     55 C         -79.5345   20.9778  -74.8526 C.2       3 UNK         0.4895 
     56 O         -78.7613   20.1449  -75.3266 O.2       3 UNK        -0.5091 
     57 CA        -80.8668   21.2590  -75.5720 C.3       3 UNK         0.0250 
     58 CB        -81.9576   20.2956  -75.0757 C.3       3 UNK        -0.1996 
     59 N         -81.3221   22.6410  -75.3948 N.am      3 UNK        -0.4254 
     60 C         -80.8288   23.6832  -76.0766 C.2       2 UNK         0.5004 
     61 O         -80.0184   23.5631  -76.9972 O.2       2 UNK        -0.5226 
     62 CA        -81.3056   25.0869  -75.6653 C.3       2 UNK         0.0269 
     63 CB        -81.8203   25.1709  -74.2089 C.3       2 UNK        -0.1926 
     64 N         -80.2013   26.0235  -75.8559 N.am      2 UNK        -0.4687 
     65 C         -80.3069   27.3473  -75.9991 C.2       1 UNK         0.5165 
     66 O         -81.3852   27.9485  -76.0216 O.2       1 UNK        -0.5079 
     67 H67       -79.4824   31.8280  -77.5201 H         1 UNK         0.0900 
     68 H68       -78.8456   31.4436  -79.1203 H         1 UNK         0.0900 
     69 H69       -80.5731   31.2783  -78.7942 H         1 UNK         0.0900 
     70 H70       -79.1790   30.2062  -76.0001 H         1 UNK         0.2959 
     71 H71       -78.3217   27.5499  -76.7509 H         1 UNK         0.1079 
     72 H72       -77.2544   28.5674  -74.8276 H         1 UNK         0.0837 
     73 H73       -78.1598   27.2024  -74.2773 H         1 UNK         0.0837 
     74 H74       -79.7883   27.3328  -72.2864 H         1 UNK         0.0685 
     75 H75       -79.8064   28.7498  -71.2627 H         1 UNK         0.0685 
     76 H76       -77.9819   25.8030  -71.9758 H         1 UNK         0.1434 
     77 H77       -74.2710   27.0637  -70.2357 H         1 UNK         0.1329 
     78 H78       -77.4229   29.9053  -70.8648 H         1 UNK         0.1335 
     79 H79       -75.3999   30.2619  -69.1487 H         1 UNK         0.0680 
     80 H80       -73.9799   29.2911  -69.4685 H         1 UNK         0.0680 
     81 H81       -72.7143   32.5086  -70.9873 H         1 UNK         0.1032 
     82 H82       -72.7186   31.4490  -69.6185 H         1 UNK         0.1032 
     83 H83       -70.6955   31.3625  -71.2600 H         1 UNK         0.0461 
     84 H84       -70.3462   28.6830  -68.9156 H         1 UNK         0.3453 
     85 H85       -70.3214   30.4200  -69.0629 H         1 UNK         0.3453 
     86 H86       -72.7527   30.4099  -73.0545 H         1 UNK         0.2984 
     87 H87       -70.9244   30.6142  -75.8104 H         1 UNK         0.0554 
     88 H88       -69.7366   28.4459  -75.5036 H         1 UNK         0.0847 
     89 H89       -71.1236   28.2399  -76.5588 H         1 UNK         0.0847 
     90 H90       -71.2038   27.7043  -74.8801 H         1 UNK         0.0847 
     91 H91       -73.2709   28.9840  -75.3222 H         1 UNK         0.3141 
     92 H92       -75.3781   30.0797  -74.6627 H         1 UNK         0.0743 
     93 H93       -75.7272   32.6568  -76.2803 H         1 UNK         0.0784 
     94 H94       -77.0071   31.7559  -75.4640 H         1 UNK         0.0784 
     95 H95       -75.7435   32.5316  -74.5258 H         1 UNK         0.0784 
     96 H96       -75.7682   30.5400  -77.5149 H         1 UNK         0.3213 
     97 H97       -76.5249   28.5371  -78.6400 H         1 UNK         0.0855 
     98 H98       -73.5055   28.0854  -79.0907 H         1 UNK         0.0814 
     99 H99       -74.3824   29.5568  -79.4897 H         1 UNK         0.0814 
    100 H100      -74.7308   28.0720  -80.3576 H         1 UNK         0.0814 
    101 H101      -75.2096   26.3043  -77.3890 H         1 UNK         0.3105 
    102 H102      -77.5058   24.0669  -78.5934 H         1 UNK         0.0547 
    103 H103      -75.7886   22.4712  -79.4155 H         1 UNK         0.0837 
    104 H104      -74.6375   23.7897  -79.6439 H         1 UNK         0.0837 
    105 H105      -76.0955   23.7072  -80.6213 H         1 UNK         0.0837 
    106 H106      -75.0707   23.5297  -77.2174 H         1 UNK         0.3020 
    107 H107      -75.0767   23.2044  -75.0376 H         1 UNK         0.1245 
    108 H108      -76.0165   25.8552  -73.7838 H         1 UNK         0.0781 
    109 H109      -74.5472   25.6367  -74.6743 H         1 UNK         0.0781 
    110 H110      -75.0829   24.5766  -70.2510 H         1 UNK         0.0836 
    111 H111      -76.3637   24.1511  -71.3491 H         1 UNK         0.0836 
    112 H112      -77.8426   23.6769  -74.1307 H         1 UNK         0.3022 
    113 H113      -77.9727   20.3900  -72.7313 H         1 UNK         0.0747 
    114 H114      -79.2481   21.5804  -70.9910 H         1 UNK         0.0793 
    115 H115      -77.5408   21.9417  -70.8150 H         1 UNK         0.0793 
    116 H116      -78.6183   23.1358  -71.5292 H         1 UNK         0.0793 
    117 H117      -80.0006   22.3044  -73.3940 H         1 UNK         0.3047 
    118 H118      -80.7123   21.0724  -76.6374 H         1 UNK         0.0822 
    119 H119      -82.8896   20.4359  -75.6237 H         1 UNK         0.0807 
    120 H120      -82.1680   20.4307  -74.0140 H         1 UNK         0.0807 
    121 H121      -81.6541   19.2573  -75.2177 H         1 UNK         0.0807 
    122 H122      -82.0115   22.8103  -74.6764 H         1 UNK         0.2946 
    123 H123      -82.1159   25.3574  -76.3459 H         1 UNK         0.1144 
    124 H124      -82.1105   26.1891  -73.9489 H         1 UNK         0.0793 
    125 H125      -81.0607   24.8555  -73.4926 H         1 UNK         0.0793 
    126 H126      -82.7052   24.5518  -74.0582 H         1 UNK         0.0793 
    127 H127      -79.2787   25.5919  -75.9313 H         1 UNK         0.2896 
@<TRIPOS>BOND
     1    1    2 1    
     2    1   67 1    
     3    1   68 1    
     4    1   69 1    
     5    2    3 2    
     6    2    4 am   BACKBONE|DICT|INTERRES
     7    4    5 1    
     8    4   70 1    
     9    5    6 1    
    10    5   65 1    
    11    5   71 1    
    12    6    7 1    
    13    6   72 1    
    14    6   73 1    
    15    7    8 1    
    16    8    9 1    
    17    8   74 1    
    18    8   75 1    
    19    9   10 ar   
    20    9   14 ar   
    21   10   11 ar   
    22   10   76 1    
    23   11   12 ar   
    24   11   48 1    
    25   12   13 ar   
    26   12   77 1    
    27   13   14 ar   
    28   13   15 1    
    29   14   78 1    
    30   15   16 1    
    31   15   79 1    
    32   15   80 1    
    33   16   17 1    
    34   17   18 1    
    35   17   81 1    
    36   17   82 1    
    37   18   19 1    
    38   18   22 1    
    39   18   83 1    
    40   19   20 am   BACKBONE|DICT|INTERRES
    41   19   21 2    
    42   20   84 1    
    43   20   85 1    
    44   22   23 am   BACKBONE|DICT|INTERRES
    45   22   86 1    
    46   23   24 2    
    47   23   25 1    
    48   25   26 1    
    49   25   27 1    
    50   25   87 1    
    51   26   88 1    
    52   26   89 1    
    53   26   90 1    
    54   27   28 am   BACKBONE|DICT|INTERRES
    55   27   91 1    
    56   28   29 2    
    57   28   30 1    
    58   30   31 1    
    59   30   32 1    
    60   30   92 1    
    61   31   93 1    
    62   31   94 1    
    63   31   95 1    
    64   32   33 am   BACKBONE|DICT|INTERRES
    65   32   96 1    
    66   33   34 2    
    67   33   35 1    
    68   35   36 1    
    69   35   37 1    
    70   35   97 1    
    71   36   98 1    
    72   36   99 1    
    73   36  100 1    
    74   37   38 am   BACKBONE|DICT|INTERRES
    75   37  101 1    
    76   38   39 2    
    77   38   40 1    
    78   40   41 1    
    79   40   42 1    
    80   40  102 1    
    81   41  103 1    
    82   41  104 1    
    83   41  105 1    
    84   42   43 am   BACKBONE|DICT|INTERRES
    85   42  106 1    
    86   43   44 2    
    87   43   45 1    
    88   45   46 1    
    89   45   49 1    
    90   45  107 1    
    91   46   47 1    
    92   46  108 1    
    93   46  109 1    
    94   47   48 1    
    95   48  110 1    
    96   48  111 1    
    97   49   50 am   BACKBONE|DICT|INTERRES
    98   49  112 1    
    99   50   51 2    
   100   50   52 1    
   101   52   53 1    
   102   52   54 1    
   103   52  113 1    
   104   53  114 1    
   105   53  115 1    
   106   53  116 1    
   107   54   55 am   BACKBONE|DICT|INTERRES
   108   54  117 1    
   109   55   56 2    
   110   55   57 1    
   111   57   58 1    
   112   57   59 1    
   113   57  118 1    
   114   58  119 1    
   115   58  120 1    
   116   58  121 1    
   117   59   60 am   BACKBONE|DICT|INTERRES
   118   59  122 1    
   119   60   61 2    
   120   60   62 1    
   121   62   63 1    
   122   62   64 1    
   123   62  123 1    
   124   63  124 1    
   125   63  125 1    
   126   63  126 1    
   127   64   65 am   BACKBONE|DICT|INTERRES
   128   64  127 1    
   129   65   66 2    
@<TRIPOS>SUBSTRUCTURE
     1 UNK         1 GROUP             0       ****    0 ROOT    
