@<TRIPOS>MOLECULE
3R135
127   129    1
SMALL
USER_CHARGES


@<TRIPOS>ATOM
      1 CA        -86.1805   29.5240  -73.5903 C.3       0 UNK        -0.1998 
      2 C         -84.7331   29.4063  -74.0439 C.2       0 UNK         0.4909 
      3 O         -84.2678   30.2320  -74.8305 O.2       0 UNK        -0.5240 
      4 N         -84.0207   28.3858  -73.5594 N.am      1 UNK        -0.4739 
      5 CA        -82.6238   28.0956  -73.8792 C.3       1 UNK         0.0864 
      6 C6        -81.6243   29.0389  -73.1533 C.3       11 UNK        -0.0881 
      7 S7        -81.7444   29.0168  -71.3278 S.3       11 UNK        -0.2682 
      8 C8        -80.6125   30.3702  -70.8779 C.3       11 UNK         0.0289 
      9 C9        -79.1706   30.0383  -71.2325 C.ar      11 UNK        -0.0687 
     10 C10       -78.6051   30.5321  -72.4103 C.ar      11 UNK        -0.0823 
     11 C11       -77.2971   30.1927  -72.7617 C.ar      11 UNK        -0.0830 
     12 C12       -76.5435   29.3765  -71.9139 C.ar      11 UNK        -0.1021 
     13 C13       -77.0839   28.8995  -70.7129 C.ar      11 UNK        -0.0753 
     14 C14       -78.4043   29.2295  -70.3878 C.ar      11 UNK        -0.0933 
     15 C15       -76.2904   28.0192  -69.7460 C.3       11 UNK         0.0166 
     16 S16       -74.4735   28.1745  -69.8643 S.3       11 UNK        -0.2615 
     17 C17       -74.0744   26.8233  -71.0216 C.3       11 UNK        -0.0865 
     18 CA        -72.7634   27.0884  -71.8159 C.3       10 UNK         0.0862 
     19 C         -71.9155   25.7915  -71.9528 C.2       10 UNK         0.5551 
     20 N         -71.8895   25.1203  -73.0989 N.am      10 UNK        -0.7319 
     21 O         -71.2597   25.3897  -70.9952 O.2       10 UNK        -0.5018 
     22 N         -73.0231   27.7234  -73.1178 N.am      10 UNK        -0.4509 
     23 C         -72.7242   28.9879  -73.4378 C.2       10 UNK         0.4899 
     24 O         -72.3747   29.8404  -72.6203 O.2       10 UNK        -0.4839 
     25 CA        -72.8081   29.3484  -74.9389 C.3       9 UNK         0.0222 
     26 CB        -72.1261   30.6929  -75.2721 C.3       9 UNK        -0.1966 
     27 N         -72.3140   28.2783  -75.8228 N.am      9 UNK        -0.4218 
     28 C         -71.0802   27.7465  -75.8008 C.2       9 UNK         0.5020 
     29 O         -70.1971   28.1238  -75.0285 O.2       9 UNK        -0.5274 
     30 CA        -70.7564   26.6155  -76.7921 C.3       8 UNK         0.0270 
     31 CB        -69.6638   25.6658  -76.2471 C.3       8 UNK        -0.1976 
     32 N         -71.9292   25.8369  -77.2114 N.am      8 UNK        -0.4313 
     33 C         -71.9540   25.1193  -78.3455 C.2       8 UNK         0.5041 
     34 O         -71.0643   25.1538  -79.1978 O.2       8 UNK        -0.5577 
     35 CA        -73.1443   24.1725  -78.5614 C.3       7 UNK         0.0284 
     36 CB        -73.1023   23.0067  -77.5595 C.3       7 UNK        -0.1958 
     37 N         -74.4391   24.8458  -78.4938 N.am      7 UNK        -0.4454 
     38 C         -74.8766   25.7547  -79.3764 C.2       7 UNK         0.5089 
     39 O         -74.2389   26.1228  -80.3634 O.2       7 UNK        -0.5125 
     40 CA        -76.2655   26.3624  -79.1118 C.3       6 UNK         0.0408 
     41 CB        -77.3695   25.4736  -79.7062 C.3       6 UNK        -0.1791 
     42 N         -76.5352   26.5894  -77.6906 N.am      6 UNK        -0.4762 
     43 C         -75.8440   27.4300  -76.9070 C.2       6 UNK         0.5007 
     44 O         -74.8869   28.1045  -77.2886 O.2       6 UNK        -0.5032 
     45 CA        -76.2545   27.4604  -75.4243 C.3       5 UNK         0.0783 
     46 C46       -77.5933   28.2037  -75.1964 C.3       11 UNK        -0.0857 
     47 S47       -77.5231   29.9980  -75.5380 S.3       11 UNK        -0.2512 
     48 C48       -76.6992   30.6936  -74.0664 C.3       11 UNK         0.0225 
     49 N         -76.2830   26.1013  -74.8825 N.am      5 UNK        -0.4615 
     50 C         -75.2013   25.3265  -74.7115 C.2       4 UNK         0.5053 
     51 O         -74.0452   25.7097  -74.9181 O.2       4 UNK        -0.5105 
     52 CA        -75.4421   23.8786  -74.2451 C.3       4 UNK         0.0263 
     53 CB        -75.3877   23.7928  -72.7123 C.3       4 UNK        -0.1981 
     54 N         -76.7145   23.3188  -74.7066 N.am      4 UNK        -0.4224 
     55 C         -77.0587   23.1320  -75.9891 C.2       3 UNK         0.4895 
     56 O         -76.3121   23.3639  -76.9379 O.2       3 UNK        -0.5091 
     57 CA        -78.5005   22.6667  -76.2617 C.3       3 UNK         0.0250 
     58 CB        -78.5630   21.1336  -76.3455 C.3       3 UNK        -0.1996 
     59 N         -79.4758   23.1470  -75.2730 N.am      3 UNK        -0.4254 
     60 C         -79.7214   24.4389  -75.0141 C.2       2 UNK         0.5004 
     61 O         -79.1376   25.3721  -75.5725 O.2       2 UNK        -0.5226 
     62 CA        -80.7354   24.7402  -73.9071 C.3       2 UNK         0.0269 
     63 CB        -80.0878   24.5736  -72.5185 C.3       2 UNK        -0.1926 
     64 N         -81.2010   26.1140  -74.0701 N.am      2 UNK        -0.4687 
     65 C         -82.3511   26.6060  -73.5998 C.2       1 UNK         0.5165 
     66 O         -83.1744   25.9351  -72.9684 O.2       1 UNK        -0.5079 
     67 H67       -86.4551   28.7301  -72.8958 H         1 UNK         0.0900 
     68 H68       -86.3407   30.4800  -73.0924 H         1 UNK         0.0900 
     69 H69       -86.8490   29.4700  -74.4492 H         1 UNK         0.0900 
     70 H70       -84.4424   27.6986  -72.9458 H         1 UNK         0.2959 
     71 H71       -82.4982   28.2295  -74.9562 H         1 UNK         0.1079 
     72 H72       -80.6006   28.7920  -73.4393 H         1 UNK         0.0837 
     73 H73       -81.7823   30.0636  -73.4927 H         1 UNK         0.0837 
     74 H74       -80.9309   31.2902  -71.3709 H         1 UNK         0.0685 
     75 H75       -80.6920   30.5556  -69.8057 H         1 UNK         0.0685 
     76 H76       -79.1911   31.1569  -73.0707 H         1 UNK         0.1434 
     77 H77       -75.5332   29.1186  -72.1951 H         1 UNK         0.1329 
     78 H78       -78.8432   28.8514  -69.4744 H         1 UNK         0.1335 
     79 H79       -76.5682   28.2794  -68.7234 H         1 UNK         0.0680 
     80 H80       -76.5837   26.9778  -69.8847 H         1 UNK         0.0680 
     81 H81       -74.0070   25.9166  -70.4161 H         1 UNK         0.1032 
     82 H82       -74.9100   26.6589  -71.7036 H         1 UNK         0.1032 
     83 H83       -72.1289   27.7513  -71.2240 H         1 UNK         0.0461 
     84 H84       -71.3223   24.2901  -73.1564 H         1 UNK         0.3453 
     85 H85       -72.4871   25.3756  -73.8735 H         1 UNK         0.3453 
     86 H86       -73.2936   27.0901  -73.8625 H         1 UNK         0.2984 
     87 H87       -73.8623   29.4737  -75.1726 H         1 UNK         0.0554 
     88 H88       -72.2185   30.9325  -76.3313 H         1 UNK         0.0847 
     89 H89       -71.0650   30.6840  -75.0210 H         1 UNK         0.0847 
     90 H90       -72.5836   31.5119  -74.7157 H         1 UNK         0.0847 
     91 H91       -72.9832   27.9510  -76.5129 H         1 UNK         0.3141 
     92 H92       -70.3515   27.1225  -77.6706 H         1 UNK         0.0743 
     93 H93       -70.0004   25.1445  -75.3507 H         1 UNK         0.0784 
     94 H94       -69.3766   24.9142  -76.9822 H         1 UNK         0.0784 
     95 H95       -68.7552   26.2104  -75.9873 H         1 UNK         0.0784 
     96 H96       -72.6965   25.7578  -76.5517 H         1 UNK         0.3213 
     97 H97       -73.0492   23.7498  -79.5641 H         1 UNK         0.0855 
     98 H98       -73.2214   23.3495  -76.5323 H         1 UNK         0.0814 
     99 H99       -72.1503   22.4773  -77.6173 H         1 UNK         0.0814 
    100 H100      -73.8887   22.2797  -77.7635 H         1 UNK         0.0814 
    101 H101      -75.0828   24.5292  -77.7725 H         1 UNK         0.3105 
    102 H102      -76.3030   27.3319  -79.6129 H         1 UNK         0.0547 
    103 H103      -78.3524   25.9311  -79.5934 H         1 UNK         0.0837 
    104 H104      -77.2081   25.3138  -80.7731 H         1 UNK         0.0837 
    105 H105      -77.3993   24.4921  -79.2315 H         1 UNK         0.0837 
    106 H106      -77.2825   26.0495  -77.2741 H         1 UNK         0.3020 
    107 H107      -75.4847   27.9969  -74.8728 H         1 UNK         0.1245 
    108 H108      -77.9448   28.0449  -74.1766 H         1 UNK         0.0781 
    109 H109      -78.3752   27.7902  -75.8340 H         1 UNK         0.0781 
    110 H110      -76.7792   31.7810  -74.1014 H         1 UNK         0.0836 
    111 H111      -75.6338   30.4722  -74.1122 H         1 UNK         0.0836 
    112 H112      -77.2025   25.6951  -74.7587 H         1 UNK         0.3022 
    113 H113      -74.6400   23.2604  -74.6512 H         1 UNK         0.0747 
    114 H114      -75.5230   22.7673  -72.3679 H         1 UNK         0.0793 
    115 H115      -74.4219   24.1263  -72.3352 H         1 UNK         0.0793 
    116 H116      -76.1562   24.4082  -72.2424 H         1 UNK         0.0793 
    117 H117      -77.3945   23.0904  -73.9967 H         1 UNK         0.3047 
    118 H118      -78.7906   23.0743  -77.2326 H         1 UNK         0.0822 
    119 H119      -78.3126   20.6648  -75.3930 H         1 UNK         0.0807 
    120 H120      -77.8605   20.7550  -77.0897 H         1 UNK         0.0807 
    121 H121      -79.5559   20.7917  -76.6384 H         1 UNK         0.0807 
    122 H122      -79.9889   22.4402  -74.7651 H         1 UNK         0.2946 
    123 H123      -81.5799   24.0549  -74.0119 H         1 UNK         0.1144 
    124 H124      -79.7257   23.5558  -72.3686 H         1 UNK         0.0793 
    125 H125      -79.2401   25.2476  -72.3864 H         1 UNK         0.0793 
    126 H126      -80.8014   24.7793  -71.7204 H         1 UNK         0.0793 
    127 H127      -80.5859   26.6893  -74.6325 H         1 UNK         0.2896 
@<TRIPOS>BOND
     1    1    2 1    
     2    1   67 1    
     3    1   68 1    
     4    1   69 1    
     5    2    3 2    
     6    2    4 am   BACKBONE|DICT|INTERRES
     7    4    5 1    
     8    4   70 1    
     9    5    6 1    
    10    5   65 1    
    11    5   71 1    
    12    6    7 1    
    13    6   72 1    
    14    6   73 1    
    15    7    8 1    
    16    8    9 1    
    17    8   74 1    
    18    8   75 1    
    19    9   10 ar   
    20    9   14 ar   
    21   10   11 ar   
    22   10   76 1    
    23   11   12 ar   
    24   11   48 1    
    25   12   13 ar   
    26   12   77 1    
    27   13   14 ar   
    28   13   15 1    
    29   14   78 1    
    30   15   16 1    
    31   15   79 1    
    32   15   80 1    
    33   16   17 1    
    34   17   18 1    
    35   17   81 1    
    36   17   82 1    
    37   18   19 1    
    38   18   22 1    
    39   18   83 1    
    40   19   20 am   BACKBONE|DICT|INTERRES
    41   19   21 2    
    42   20   84 1    
    43   20   85 1    
    44   22   23 am   BACKBONE|DICT|INTERRES
    45   22   86 1    
    46   23   24 2    
    47   23   25 1    
    48   25   26 1    
    49   25   27 1    
    50   25   87 1    
    51   26   88 1    
    52   26   89 1    
    53   26   90 1    
    54   27   28 am   BACKBONE|DICT|INTERRES
    55   27   91 1    
    56   28   29 2    
    57   28   30 1    
    58   30   31 1    
    59   30   32 1    
    60   30   92 1    
    61   31   93 1    
    62   31   94 1    
    63   31   95 1    
    64   32   33 am   BACKBONE|DICT|INTERRES
    65   32   96 1    
    66   33   34 2    
    67   33   35 1    
    68   35   36 1    
    69   35   37 1    
    70   35   97 1    
    71   36   98 1    
    72   36   99 1    
    73   36  100 1    
    74   37   38 am   BACKBONE|DICT|INTERRES
    75   37  101 1    
    76   38   39 2    
    77   38   40 1    
    78   40   41 1    
    79   40   42 1    
    80   40  102 1    
    81   41  103 1    
    82   41  104 1    
    83   41  105 1    
    84   42   43 am   BACKBONE|DICT|INTERRES
    85   42  106 1    
    86   43   44 2    
    87   43   45 1    
    88   45   46 1    
    89   45   49 1    
    90   45  107 1    
    91   46   47 1    
    92   46  108 1    
    93   46  109 1    
    94   47   48 1    
    95   48  110 1    
    96   48  111 1    
    97   49   50 am   BACKBONE|DICT|INTERRES
    98   49  112 1    
    99   50   51 2    
   100   50   52 1    
   101   52   53 1    
   102   52   54 1    
   103   52  113 1    
   104   53  114 1    
   105   53  115 1    
   106   53  116 1    
   107   54   55 am   BACKBONE|DICT|INTERRES
   108   54  117 1    
   109   55   56 2    
   110   55   57 1    
   111   57   58 1    
   112   57   59 1    
   113   57  118 1    
   114   58  119 1    
   115   58  120 1    
   116   58  121 1    
   117   59   60 am   BACKBONE|DICT|INTERRES
   118   59  122 1    
   119   60   61 2    
   120   60   62 1    
   121   62   63 1    
   122   62   64 1    
   123   62  123 1    
   124   63  124 1    
   125   63  125 1    
   126   63  126 1    
   127   64   65 am   BACKBONE|DICT|INTERRES
   128   64  127 1    
   129   65   66 2    
@<TRIPOS>SUBSTRUCTURE
     1 UNK         1 GROUP             0       ****    0 ROOT    
