@<TRIPOS>MOLECULE
3R135
127   129    1
SMALL
USER_CHARGES


@<TRIPOS>ATOM
      1 CA        -83.8748   27.4243  -74.8612 C.3       0 UNK        -0.1998 
      2 C         -82.5101   27.0526  -74.3031 C.2       0 UNK         0.4909 
      3 O         -82.0139   25.9621  -74.5852 O.2       0 UNK        -0.5240 
      4 N         -81.8926   27.9582  -73.5306 N.am      1 UNK        -0.4739 
      5 CA        -80.5914   27.7953  -72.8645 C.3       1 UNK         0.0864 
      6 C6        -80.6665   26.8508  -71.6292 C.3       11 UNK        -0.0881 
      7 S7        -81.2684   27.7770  -70.1686 S.3       11 UNK        -0.2682 
      8 C8        -79.7685   28.0751  -69.1556 C.3       11 UNK         0.0289 
      9 C9        -78.4978   28.2414  -69.9806 C.ar      11 UNK        -0.0687 
     10 C10       -77.5247   27.2380  -69.9646 C.ar      11 UNK        -0.0823 
     11 C11       -76.4126   27.3131  -70.8056 C.ar      11 UNK        -0.0830 
     12 C12       -76.2760   28.4036  -71.6684 C.ar      11 UNK        -0.1021 
     13 C13       -77.2287   29.4289  -71.6745 C.ar      11 UNK        -0.0753 
     14 C14       -78.3227   29.3560  -70.8065 C.ar      11 UNK        -0.0933 
     15 C15       -77.1270   30.5695  -72.6773 C.3       11 UNK         0.0166 
     16 S16       -76.3288   32.0661  -72.0068 S.3       11 UNK        -0.2615 
     17 C17       -74.6433   31.5157  -71.5620 C.3       11 UNK        -0.0865 
     18 CA        -73.6371   31.5343  -72.7442 C.3       10 UNK         0.0862 
     19 C         -72.1912   31.2991  -72.2188 C.2       10 UNK         0.5551 
     20 N         -71.6164   30.1117  -72.3749 N.am      10 UNK        -0.7319 
     21 O         -71.5863   32.2109  -71.6605 O.2       10 UNK        -0.5018 
     22 N         -74.0324   30.5907  -73.7974 N.am      10 UNK        -0.4509 
     23 C         -73.5866   30.5894  -75.0564 C.2       10 UNK         0.4899 
     24 O         -72.8532   31.4545  -75.5375 O.2       10 UNK        -0.4839 
     25 CA        -74.0148   29.3774  -75.9043 C.3       9 UNK         0.0222 
     26 CB        -74.3035   29.7709  -77.3631 C.3       9 UNK        -0.1966 
     27 N         -73.0071   28.3140  -75.8819 N.am      9 UNK        -0.4218 
     28 C         -72.6046   27.6393  -74.7956 C.2       9 UNK         0.5020 
     29 O         -73.0471   27.8364  -73.6611 O.2       9 UNK        -0.5274 
     30 CA        -71.5390   26.5587  -75.0237 C.3       8 UNK         0.0270 
     31 CB        -71.2313   25.7371  -73.7541 C.3       8 UNK        -0.1976 
     32 N         -71.9376   25.6628  -76.1123 N.am      8 UNK        -0.4313 
     33 C         -71.0757   25.0272  -76.9198 C.2       8 UNK         0.5041 
     34 O         -69.8582   25.2141  -76.8801 O.2       8 UNK        -0.5577 
     35 CA        -71.6238   23.9916  -77.9221 C.3       7 UNK         0.0284 
     36 CB        -70.9491   22.6237  -77.7117 C.3       7 UNK        -0.1958 
     37 N         -73.0730   23.8087  -77.8261 N.am      7 UNK        -0.4454 
     38 C         -73.9755   24.3579  -78.6481 C.2       7 UNK         0.5089 
     39 O         -73.6861   25.0709  -79.6094 O.2       7 UNK        -0.5125 
     40 CA        -75.4581   24.0727  -78.3377 C.3       6 UNK         0.0408 
     41 CB        -75.9580   22.8798  -79.1671 C.3       6 UNK        -0.1791 
     42 N         -75.7613   23.8336  -76.9194 N.am      6 UNK        -0.4762 
     43 C         -75.5090   24.6869  -75.9161 C.2       6 UNK         0.5007 
     44 O         -74.8978   25.7438  -76.0731 O.2       6 UNK        -0.5032 
     45 CA        -76.0089   24.2877  -74.5127 C.3       5 UNK         0.0783 
     46 C46       -75.6008   25.3266  -73.4383 C.3       11 UNK        -0.0857 
     47 S47       -75.9384   24.7525  -71.7450 S.3       11 UNK        -0.2512 
     48 C48       -75.3773   26.1984  -70.7919 C.3       11 UNK         0.0225 
     49 N         -77.4580   24.0779  -74.5416 N.am      5 UNK        -0.4615 
     50 C         -78.0715   22.9437  -74.8968 C.2       4 UNK         0.5053 
     51 O         -77.4710   21.9191  -75.2227 O.2       4 UNK        -0.5105 
     52 CA        -79.6071   22.9795  -74.9524 C.3       4 UNK         0.0263 
     53 CB        -80.2144   23.0789  -73.5429 C.3       4 UNK        -0.1981 
     54 N         -80.0864   24.0892  -75.7780 N.am      4 UNK        -0.4224 
     55 C         -79.9438   24.1641  -77.1106 C.2       3 UNK         0.4895 
     56 O         -79.4933   23.2535  -77.8057 O.2       3 UNK        -0.5091 
     57 CA        -80.3463   25.4880  -77.7799 C.3       3 UNK         0.0250 
     58 CB        -81.8625   25.5516  -78.0274 C.3       3 UNK        -0.1996 
     59 N         -79.9124   26.6339  -76.9777 N.am      3 UNK        -0.4254 
     60 C         -78.6538   27.0984  -76.9657 C.2       2 UNK         0.5004 
     61 O         -77.7830   26.7108  -77.7422 O.2       2 UNK        -0.5226 
     62 CA        -78.2903   28.1758  -75.9264 C.3       2 UNK         0.0269 
     63 CB        -78.0747   29.5376  -76.6070 C.3       2 UNK        -0.1926 
     64 N         -79.2782   28.3288  -74.8539 N.am      2 UNK        -0.4687 
     65 C         -79.4721   27.4421  -73.8673 C.2       1 UNK         0.5165 
     66 O         -78.8521   26.3832  -73.7796 O.2       1 UNK        -0.5079 
     67 H67       -83.8429   27.4412  -75.9502 H         1 UNK         0.0900 
     68 H68       -84.6165   26.6877  -74.5536 H         1 UNK         0.0900 
     69 H69       -84.2052   28.4033  -74.5149 H         1 UNK         0.0900 
     70 H70       -82.3583   28.8363  -73.3465 H         1 UNK         0.2959 
     71 H71       -80.3232   28.7908  -72.5124 H         1 UNK         0.1079 
     72 H72       -81.3387   26.0133  -71.8208 H         1 UNK         0.0837 
     73 H73       -79.7075   26.3891  -71.3949 H         1 UNK         0.0837 
     74 H74       -79.9239   28.9675  -68.5479 H         1 UNK         0.0685 
     75 H75       -79.6595   27.2471  -68.4534 H         1 UNK         0.0685 
     76 H76       -77.6507   26.3735  -69.3269 H         1 UNK         0.1434 
     77 H77       -75.4334   28.4388  -72.3438 H         1 UNK         0.1329 
     78 H78       -79.0742   30.1338  -70.8208 H         1 UNK         0.1335 
     79 H79       -78.1301   30.8442  -73.0070 H         1 UNK         0.0680 
     80 H80       -76.6155   30.2377  -73.5794 H         1 UNK         0.0680 
     81 H81       -74.3007   32.1933  -70.7772 H         1 UNK         0.1032 
     82 H82       -74.6795   30.5327  -71.0923 H         1 UNK         0.1032 
     83 H83       -73.6505   32.5358  -73.1787 H         1 UNK         0.0461 
     84 H84       -70.6807   29.9662  -72.0314 H         1 UNK         0.3453 
     85 H85       -72.1254   29.3480  -72.8076 H         1 UNK         0.3453 
     86 H86       -74.5415   29.7790  -73.4852 H         1 UNK         0.2984 
     87 H87       -74.9372   28.9693  -75.4849 H         1 UNK         0.0554 
     88 H88       -75.0347   30.5789  -77.4114 H         1 UNK         0.0847 
     89 H89       -74.7121   28.9305  -77.9253 H         1 UNK         0.0847 
     90 H90       -73.4053   30.1155  -77.8770 H         1 UNK         0.0847 
     91 H91       -72.5782   28.0848  -76.7665 H         1 UNK         0.3141 
     92 H92       -70.6307   27.0944  -75.3081 H         1 UNK         0.0743 
     93 H93       -70.9242   26.3846  -72.9317 H         1 UNK         0.0784 
     94 H94       -72.1020   25.1728  -73.4194 H         1 UNK         0.0784 
     95 H95       -70.4197   25.0299  -73.9253 H         1 UNK         0.0784 
     96 H96       -72.9400   25.5363  -76.2349 H         1 UNK         0.3213 
     97 H97       -71.3576   24.3462  -78.9202 H         1 UNK         0.0855 
     98 H98       -71.1388   22.2283  -76.7131 H         1 UNK         0.0814 
     99 H99       -69.8673   22.6952  -77.8333 H         1 UNK         0.0814 
    100 H100      -71.3040   21.8908  -78.4367 H         1 UNK         0.0814 
    101 H101      -73.4114   23.2356  -77.0666 H         1 UNK         0.3105 
    102 H102      -76.0219   24.9551  -78.6438 H         1 UNK         0.0547 
    103 H103      -77.0320   22.7359  -79.0470 H         1 UNK         0.0837 
    104 H104      -75.7722   23.0374  -80.2305 H         1 UNK         0.0837 
    105 H105      -75.4599   21.9523  -78.8824 H         1 UNK         0.0837 
    106 H106      -76.2831   22.9927  -76.6991 H         1 UNK         0.3020 
    107 H107      -75.5165   23.3450  -74.2631 H         1 UNK         0.1245 
    108 H108      -76.1139   26.2747  -73.6071 H         1 UNK         0.0781 
    109 H109      -74.5325   25.5394  -73.4956 H         1 UNK         0.0781 
    110 H110      -74.4206   26.5513  -71.1820 H         1 UNK         0.0836 
    111 H111      -75.1898   25.8905  -69.7623 H         1 UNK         0.0836 
    112 H112      -78.0242   24.8869  -74.2863 H         1 UNK         0.3022 
    113 H113      -79.9496   22.0463  -75.4044 H         1 UNK         0.0747 
    114 H114      -81.3035   23.0449  -73.5793 H         1 UNK         0.0793 
    115 H115      -79.8828   22.2503  -72.9159 H         1 UNK         0.0793 
    116 H116      -79.9293   24.0035  -73.0398 H         1 UNK         0.0793 
    117 H117      -80.5285   24.8626  -75.2883 H         1 UNK         0.3047 
    118 H118      -79.8509   25.5336  -78.7526 H         1 UNK         0.0822 
    119 H119      -82.1778   24.7456  -78.6913 H         1 UNK         0.0807 
    120 H120      -82.1488   26.4909  -78.5008 H         1 UNK         0.0807 
    121 H121      -82.4356   25.4505  -77.1064 H         1 UNK         0.0807 
    122 H122      -80.5645   26.9894  -76.2936 H         1 UNK         0.2946 
    123 H123      -77.3440   27.8644  -75.4764 H         1 UNK         0.1144 
    124 H124      -77.7041   30.2821  -75.9025 H         1 UNK         0.0793 
    125 H125      -78.9966   29.9188  -77.0476 H         1 UNK         0.0793 
    126 H126      -77.3403   29.4605  -77.4097 H         1 UNK         0.0793 
    127 H127      -79.8569   29.1562  -74.8846 H         1 UNK         0.2896 
@<TRIPOS>BOND
     1    1    2 1    
     2    1   67 1    
     3    1   68 1    
     4    1   69 1    
     5    2    3 2    
     6    2    4 am   BACKBONE|DICT|INTERRES
     7    4    5 1    
     8    4   70 1    
     9    5    6 1    
    10    5   65 1    
    11    5   71 1    
    12    6    7 1    
    13    6   72 1    
    14    6   73 1    
    15    7    8 1    
    16    8    9 1    
    17    8   74 1    
    18    8   75 1    
    19    9   10 ar   
    20    9   14 ar   
    21   10   11 ar   
    22   10   76 1    
    23   11   12 ar   
    24   11   48 1    
    25   12   13 ar   
    26   12   77 1    
    27   13   14 ar   
    28   13   15 1    
    29   14   78 1    
    30   15   16 1    
    31   15   79 1    
    32   15   80 1    
    33   16   17 1    
    34   17   18 1    
    35   17   81 1    
    36   17   82 1    
    37   18   19 1    
    38   18   22 1    
    39   18   83 1    
    40   19   20 am   BACKBONE|DICT|INTERRES
    41   19   21 2    
    42   20   84 1    
    43   20   85 1    
    44   22   23 am   BACKBONE|DICT|INTERRES
    45   22   86 1    
    46   23   24 2    
    47   23   25 1    
    48   25   26 1    
    49   25   27 1    
    50   25   87 1    
    51   26   88 1    
    52   26   89 1    
    53   26   90 1    
    54   27   28 am   BACKBONE|DICT|INTERRES
    55   27   91 1    
    56   28   29 2    
    57   28   30 1    
    58   30   31 1    
    59   30   32 1    
    60   30   92 1    
    61   31   93 1    
    62   31   94 1    
    63   31   95 1    
    64   32   33 am   BACKBONE|DICT|INTERRES
    65   32   96 1    
    66   33   34 2    
    67   33   35 1    
    68   35   36 1    
    69   35   37 1    
    70   35   97 1    
    71   36   98 1    
    72   36   99 1    
    73   36  100 1    
    74   37   38 am   BACKBONE|DICT|INTERRES
    75   37  101 1    
    76   38   39 2    
    77   38   40 1    
    78   40   41 1    
    79   40   42 1    
    80   40  102 1    
    81   41  103 1    
    82   41  104 1    
    83   41  105 1    
    84   42   43 am   BACKBONE|DICT|INTERRES
    85   42  106 1    
    86   43   44 2    
    87   43   45 1    
    88   45   46 1    
    89   45   49 1    
    90   45  107 1    
    91   46   47 1    
    92   46  108 1    
    93   46  109 1    
    94   47   48 1    
    95   48  110 1    
    96   48  111 1    
    97   49   50 am   BACKBONE|DICT|INTERRES
    98   49  112 1    
    99   50   51 2    
   100   50   52 1    
   101   52   53 1    
   102   52   54 1    
   103   52  113 1    
   104   53  114 1    
   105   53  115 1    
   106   53  116 1    
   107   54   55 am   BACKBONE|DICT|INTERRES
   108   54  117 1    
   109   55   56 2    
   110   55   57 1    
   111   57   58 1    
   112   57   59 1    
   113   57  118 1    
   114   58  119 1    
   115   58  120 1    
   116   58  121 1    
   117   59   60 am   BACKBONE|DICT|INTERRES
   118   59  122 1    
   119   60   61 2    
   120   60   62 1    
   121   62   63 1    
   122   62   64 1    
   123   62  123 1    
   124   63  124 1    
   125   63  125 1    
   126   63  126 1    
   127   64   65 am   BACKBONE|DICT|INTERRES
   128   64  127 1    
   129   65   66 2    
@<TRIPOS>SUBSTRUCTURE
     1 UNK         1 GROUP             0       ****    0 ROOT    
