@<TRIPOS>MOLECULE
3R135
127   129    1
SMALL
USER_CHARGES


@<TRIPOS>ATOM
      1 CA        -80.5928   30.1241  -76.7836 C.3       0 UNK        -0.1998 
      2 C         -79.1209   29.9385  -76.4230 C.2       0 UNK         0.4909 
      3 O         -78.2672   30.4345  -77.1559 O.2       0 UNK        -0.5240 
      4 N         -78.7501   29.2687  -75.3197 N.am      1 UNK        -0.4739 
      5 CA        -79.5698   28.5952  -74.3014 C.3       1 UNK         0.0864 
      6 C6        -80.5883   29.5577  -73.6226 C.3       11 UNK        -0.0881 
      7 S7        -81.1078   29.0678  -71.9425 S.3       11 UNK        -0.2682 
      8 C8        -79.8701   29.8896  -70.8780 C.3       11 UNK         0.0289 
      9 C9        -78.6044   29.0766  -70.5969 C.ar      11 UNK        -0.0687 
     10 C10       -78.5707   27.6794  -70.7010 C.ar      11 UNK        -0.0823 
     11 C11       -77.4117   26.9653  -70.3867 C.ar      11 UNK        -0.0830 
     12 C12       -76.2807   27.6528  -69.9380 C.ar      11 UNK        -0.1021 
     13 C13       -76.2963   29.0450  -69.8245 C.ar      11 UNK        -0.0753 
     14 C14       -77.4583   29.7486  -70.1586 C.ar      11 UNK        -0.0933 
     15 C15       -75.0662   29.7832  -69.3125 C.3       11 UNK         0.0166 
     16 S16       -73.7228   29.8397  -70.5421 S.3       11 UNK        -0.2615 
     17 C17       -74.4789   30.8358  -71.8722 C.3       11 UNK        -0.0865 
     18 CA        -74.7923   29.9843  -73.1372 C.3       10 UNK         0.0862 
     19 C         -75.7048   30.7273  -74.1596 C.2       10 UNK         0.5551 
     20 N         -75.7936   30.2508  -75.3931 N.am      10 UNK        -0.7319 
     21 O         -76.3554   31.7181  -73.8361 O.2       10 UNK        -0.5018 
     22 N         -73.5764   29.3935  -73.7314 N.am      10 UNK        -0.4509 
     23 C         -72.5917   30.0710  -74.3331 C.2       10 UNK         0.4899 
     24 O         -72.6166   31.2881  -74.5209 O.2       10 UNK        -0.4839 
     25 CA        -71.3367   29.2985  -74.7814 C.3       9 UNK         0.0222 
     26 CB        -70.2861   29.2940  -73.6535 C.3       9 UNK        -0.1966 
     27 N         -71.5303   27.9424  -75.3161 N.am      9 UNK        -0.4218 
     28 C         -71.9501   26.8290  -74.7023 C.2       9 UNK         0.5020 
     29 O         -72.4558   26.8030  -73.5791 O.2       9 UNK        -0.5274 
     30 CA        -71.7346   25.5195  -75.4857 C.3       8 UNK         0.0270 
     31 CB        -71.9328   24.2599  -74.6204 C.3       8 UNK        -0.1976 
     32 N         -72.5790   25.4276  -76.6774 N.am      8 UNK        -0.4313 
     33 C         -72.3716   26.0799  -77.8299 C.2       8 UNK         0.5041 
     34 O         -71.4538   26.8851  -77.9987 O.2       8 UNK        -0.5577 
     35 CA        -73.3482   25.7924  -78.9795 C.3       7 UNK         0.0284 
     36 CB        -73.0785   24.4066  -79.5895 C.3       7 UNK        -0.1958 
     37 N         -74.7288   25.8565  -78.5040 N.am      7 UNK        -0.4454 
     38 C         -75.5526   26.8991  -78.6808 C.2       7 UNK         0.5089 
     39 O         -75.2863   27.8754  -79.3822 O.2       7 UNK        -0.5125 
     40 CA        -76.9005   26.8559  -77.9326 C.3       6 UNK         0.0408 
     41 CB        -77.9899   26.2548  -78.8336 C.3       6 UNK        -0.1791 
     42 N         -76.8393   26.1042  -76.6752 N.am      6 UNK        -0.4762 
     43 C         -76.0549   26.4279  -75.6350 C.2       6 UNK         0.5007 
     44 O         -75.3976   27.4657  -75.5826 O.2       6 UNK        -0.5032 
     45 CA        -75.9125   25.4091  -74.4885 C.3       5 UNK         0.0783 
     46 C46       -76.6203   25.9040  -73.2110 C.3       11 UNK        -0.0857 
     47 S47       -76.1596   24.8969  -71.7633 S.3       11 UNK        -0.2512 
     48 C48       -77.3873   25.4496  -70.5375 C.3       11 UNK         0.0225 
     49 N         -76.3126   24.0463  -74.8606 N.am      5 UNK        -0.4615 
     50 C         -75.7018   23.2954  -75.7881 C.2       4 UNK         0.5053 
     51 O         -74.7416   23.6892  -76.4510 O.2       4 UNK        -0.5105 
     52 CA        -76.2592   21.8878  -76.0557 C.3       4 UNK         0.0263 
     53 CB        -75.4193   20.8375  -75.3122 C.3       4 UNK        -0.1981 
     54 N         -77.6714   21.7175  -75.7022 N.am      4 UNK        -0.4224 
     55 C         -78.6966   22.3818  -76.2545 C.2       3 UNK         0.4895 
     56 O         -78.5600   23.2419  -77.1270 O.2       3 UNK        -0.5091 
     57 CA        -80.1150   22.0342  -75.7567 C.3       3 UNK         0.0250 
     58 CB        -80.1549   20.9926  -74.6131 C.3       3 UNK        -0.1996 
     59 N         -80.8768   23.2304  -75.3802 N.am      3 UNK        -0.4254 
     60 C         -80.5301   24.1496  -74.4676 C.2       2 UNK         0.5004 
     61 O         -79.4979   24.1062  -73.7934 O.2       2 UNK        -0.5226 
     62 CA        -81.5464   25.2804  -74.2325 C.3       2 UNK         0.0269 
     63 CB        -82.4809   24.9222  -73.0655 C.3       2 UNK        -0.1926 
     64 N         -80.9004   26.5611  -73.9421 N.am      2 UNK        -0.4687 
     65 C         -80.1905   27.2756  -74.8220 C.2       1 UNK         0.5165 
     66 O         -80.0278   26.9248  -75.9918 O.2       1 UNK        -0.5079 
     67 H67       -81.1879   29.2342  -76.5920 H         1 UNK         0.0900 
     68 H68       -80.6909   30.3506  -77.8450 H         1 UNK         0.0900 
     69 H69       -81.0160   30.9596  -76.2273 H         1 UNK         0.0900 
     70 H70       -77.7539   29.1808  -75.1694 H         1 UNK         0.2959 
     71 H71       -78.8474   28.2939  -73.5418 H         1 UNK         0.1079 
     72 H72       -80.1694   30.5635  -73.5628 H         1 UNK         0.0837 
     73 H73       -81.4930   29.6545  -74.2236 H         1 UNK         0.0837 
     74 H74       -79.6083   30.8575  -71.3083 H         1 UNK         0.0685 
     75 H75       -80.3451   30.1031  -69.9197 H         1 UNK         0.0685 
     76 H76       -79.4477   27.1338  -71.0169 H         1 UNK         0.1434 
     77 H77       -75.3824   27.1042  -69.6885 H         1 UNK         0.1329 
     78 H78       -77.4777   30.8253  -70.0579 H         1 UNK         0.1335 
     79 H79       -75.3204   30.8005  -69.0103 H         1 UNK         0.0680 
     80 H80       -74.6976   29.2843  -68.4150 H         1 UNK         0.0680 
     81 H81       -73.8073   31.6590  -72.1194 H         1 UNK         0.1032 
     82 H82       -75.3843   31.3056  -71.4860 H         1 UNK         0.1032 
     83 H83       -75.3955   29.1386  -72.8065 H         1 UNK         0.0461 
     84 H84       -75.3369   29.3727  -75.6217 H         1 UNK         0.3453 
     85 H85       -76.3960   30.7008  -76.0692 H         1 UNK         0.3453 
     86 H86       -73.4483   28.3924  -73.6086 H         1 UNK         0.2984 
     87 H87       -70.9142   29.8665  -75.6119 H         1 UNK         0.0554 
     88 H88       -69.3472   28.8506  -73.9848 H         1 UNK         0.0847 
     89 H89       -70.0649   30.3095  -73.3220 H         1 UNK         0.0847 
     90 H90       -70.6317   28.7386  -72.7807 H         1 UNK         0.0847 
     91 H91       -71.2517   27.8193  -76.2874 H         1 UNK         0.3141 
     92 H92       -70.6916   25.5162  -75.8102 H         1 UNK         0.0743 
     93 H93       -72.9551   24.1601  -74.2596 H         1 UNK         0.0784 
     94 H94       -71.6892   23.3555  -75.1782 H         1 UNK         0.0784 
     95 H95       -71.2824   24.2838  -73.7450 H         1 UNK         0.0784 
     96 H96       -73.3622   24.7777  -76.6188 H         1 UNK         0.3213 
     97 H97       -73.1789   26.5407  -79.7569 H         1 UNK         0.0855 
     98 H98       -72.0492   24.3301  -79.9426 H         1 UNK         0.0814 
     99 H99       -73.7284   24.2197  -80.4444 H         1 UNK         0.0814 
    100 H100      -73.2372   23.6034  -78.8686 H         1 UNK         0.0814 
    101 H101      -75.0275   25.1102  -77.8860 H         1 UNK         0.3105 
    102 H102      -77.1797   27.8831  -77.6927 H         1 UNK         0.0547 
    103 H103      -78.0773   26.8135  -79.7663 H         1 UNK         0.0837 
    104 H104      -77.7735   25.2173  -79.0915 H         1 UNK         0.0837 
    105 H105      -78.9658   26.2807  -78.3496 H         1 UNK         0.0837 
    106 H106      -77.3675   25.2404  -76.6371 H         1 UNK         0.3020 
    107 H107      -74.8444   25.3812  -74.2694 H         1 UNK         0.1245 
    108 H108      -77.7033   25.8966  -73.3349 H         1 UNK         0.0781 
    109 H109      -76.3403   26.9363  -72.9936 H         1 UNK         0.0781 
    110 H110      -77.1574   24.9953  -69.5728 H         1 UNK         0.0836 
    111 H111      -78.3670   25.0690  -70.8318 H         1 UNK         0.0836 
    112 H112      -77.1187   23.6731  -74.3760 H         1 UNK         0.3022 
    113 H113      -76.1649   21.7051  -77.1282 H         1 UNK         0.0747 
    114 H114      -75.7329   19.8246  -75.5657 H         1 UNK         0.0793 
    115 H115      -74.3641   20.9229  -75.5769 H         1 UNK         0.0793 
    116 H116      -75.4935   20.9533  -74.2300 H         1 UNK         0.0793 
    117 H117      -77.8784   21.0398  -74.9828 H         1 UNK         0.3047 
    118 H118      -80.6311   21.5997  -76.6141 H         1 UNK         0.0822 
    119 H119      -81.1830   20.7691  -74.3277 H         1 UNK         0.0807 
    120 H120      -79.6381   21.3421  -73.7182 H         1 UNK         0.0807 
    121 H121      -79.7027   20.0476  -74.9170 H         1 UNK         0.0807 
    122 H122      -81.7346   23.3709  -75.8954 H         1 UNK         0.2946 
    123 H123      -82.1467   25.4068  -75.1366 H         1 UNK         0.1144 
    124 H124      -83.0068   23.9860  -73.2576 H         1 UNK         0.0793 
    125 H125      -83.2376   25.6917  -72.9109 H         1 UNK         0.0793 
    126 H126      -81.9297   24.8002  -72.1320 H         1 UNK         0.0793 
    127 H127      -81.0068   26.9216  -73.0037 H         1 UNK         0.2896 
@<TRIPOS>BOND
     1    1    2 1    
     2    1   67 1    
     3    1   68 1    
     4    1   69 1    
     5    2    3 2    
     6    2    4 am   BACKBONE|DICT|INTERRES
     7    4    5 1    
     8    4   70 1    
     9    5    6 1    
    10    5   65 1    
    11    5   71 1    
    12    6    7 1    
    13    6   72 1    
    14    6   73 1    
    15    7    8 1    
    16    8    9 1    
    17    8   74 1    
    18    8   75 1    
    19    9   10 ar   
    20    9   14 ar   
    21   10   11 ar   
    22   10   76 1    
    23   11   12 ar   
    24   11   48 1    
    25   12   13 ar   
    26   12   77 1    
    27   13   14 ar   
    28   13   15 1    
    29   14   78 1    
    30   15   16 1    
    31   15   79 1    
    32   15   80 1    
    33   16   17 1    
    34   17   18 1    
    35   17   81 1    
    36   17   82 1    
    37   18   19 1    
    38   18   22 1    
    39   18   83 1    
    40   19   20 am   BACKBONE|DICT|INTERRES
    41   19   21 2    
    42   20   84 1    
    43   20   85 1    
    44   22   23 am   BACKBONE|DICT|INTERRES
    45   22   86 1    
    46   23   24 2    
    47   23   25 1    
    48   25   26 1    
    49   25   27 1    
    50   25   87 1    
    51   26   88 1    
    52   26   89 1    
    53   26   90 1    
    54   27   28 am   BACKBONE|DICT|INTERRES
    55   27   91 1    
    56   28   29 2    
    57   28   30 1    
    58   30   31 1    
    59   30   32 1    
    60   30   92 1    
    61   31   93 1    
    62   31   94 1    
    63   31   95 1    
    64   32   33 am   BACKBONE|DICT|INTERRES
    65   32   96 1    
    66   33   34 2    
    67   33   35 1    
    68   35   36 1    
    69   35   37 1    
    70   35   97 1    
    71   36   98 1    
    72   36   99 1    
    73   36  100 1    
    74   37   38 am   BACKBONE|DICT|INTERRES
    75   37  101 1    
    76   38   39 2    
    77   38   40 1    
    78   40   41 1    
    79   40   42 1    
    80   40  102 1    
    81   41  103 1    
    82   41  104 1    
    83   41  105 1    
    84   42   43 am   BACKBONE|DICT|INTERRES
    85   42  106 1    
    86   43   44 2    
    87   43   45 1    
    88   45   46 1    
    89   45   49 1    
    90   45  107 1    
    91   46   47 1    
    92   46  108 1    
    93   46  109 1    
    94   47   48 1    
    95   48  110 1    
    96   48  111 1    
    97   49   50 am   BACKBONE|DICT|INTERRES
    98   49  112 1    
    99   50   51 2    
   100   50   52 1    
   101   52   53 1    
   102   52   54 1    
   103   52  113 1    
   104   53  114 1    
   105   53  115 1    
   106   53  116 1    
   107   54   55 am   BACKBONE|DICT|INTERRES
   108   54  117 1    
   109   55   56 2    
   110   55   57 1    
   111   57   58 1    
   112   57   59 1    
   113   57  118 1    
   114   58  119 1    
   115   58  120 1    
   116   58  121 1    
   117   59   60 am   BACKBONE|DICT|INTERRES
   118   59  122 1    
   119   60   61 2    
   120   60   62 1    
   121   62   63 1    
   122   62   64 1    
   123   62  123 1    
   124   63  124 1    
   125   63  125 1    
   126   63  126 1    
   127   64   65 am   BACKBONE|DICT|INTERRES
   128   64  127 1    
   129   65   66 2    
@<TRIPOS>SUBSTRUCTURE
     1 UNK         1 GROUP             0       ****    0 ROOT    
