@<TRIPOS>MOLECULE
3R135
127   129    1
SMALL
USER_CHARGES


@<TRIPOS>ATOM
      1 CA        -85.0888   28.3255  -73.0324 C.3       0 UNK        -0.1998 
      2 C         -83.6794   28.1157  -73.5640 C.2       0 UNK         0.4909 
      3 O         -83.4079   28.4243  -74.7253 O.2       0 UNK        -0.5240 
      4 N         -82.7787   27.5801  -72.7306 N.am      1 UNK        -0.4739 
      5 CA        -81.3659   27.3202  -73.0432 C.3       1 UNK         0.0864 
      6 C6        -80.4933   27.3291  -71.7614 C.3       11 UNK        -0.0881 
      7 S7        -80.5385   28.9572  -70.9350 S.3       11 UNK        -0.2682 
      8 C8        -78.8748   29.0675  -70.1944 C.3       11 UNK         0.0289 
      9 C9        -77.7388   28.9984  -71.2103 C.ar      11 UNK        -0.0687 
     10 C10       -77.7750   29.7537  -72.3899 C.ar      11 UNK        -0.0823 
     11 C11       -76.7344   29.6676  -73.3197 C.ar      11 UNK        -0.0830 
     12 C12       -75.6290   28.8647  -73.0331 C.ar      11 UNK        -0.1021 
     13 C13       -75.5724   28.1135  -71.8596 C.ar      11 UNK        -0.0753 
     14 C14       -76.6361   28.1748  -70.9559 C.ar      11 UNK        -0.0933 
     15 C15       -74.3612   27.2324  -71.5896 C.3       11 UNK         0.0166 
     16 S16       -73.4163   27.7139  -70.1046 S.3       11 UNK        -0.2615 
     17 C17       -73.2467   29.5348  -70.2261 C.3       11 UNK        -0.0865 
     18 CA        -72.0298   30.0491  -71.0404 C.3       10 UNK         0.0862 
     19 C         -70.6601   29.5946  -70.4543 C.2       10 UNK         0.5551 
     20 N         -69.7962   28.9358  -71.2170 N.am      10 UNK        -0.7319 
     21 O         -70.3706   29.8629  -69.2907 O.2       10 UNK        -0.5018 
     22 N         -72.2116   29.8205  -72.4834 N.am      10 UNK        -0.4509 
     23 C         -71.7023   30.5971  -73.4481 C.2       10 UNK         0.4899 
     24 O         -70.9776   31.5697  -73.2335 O.2       10 UNK        -0.4839 
     25 CA        -72.0626   30.2063  -74.8895 C.3       9 UNK         0.0222 
     26 CB        -71.3953   31.1091  -75.9451 C.3       9 UNK        -0.1966 
     27 N         -71.6838   28.8142  -75.1338 N.am      9 UNK        -0.4218 
     28 C         -72.5010   27.8618  -75.5964 C.2       9 UNK         0.5020 
     29 O         -73.6841   28.0501  -75.8795 O.2       9 UNK        -0.5274 
     30 CA        -71.8823   26.4673  -75.7491 C.3       8 UNK         0.0270 
     31 CB        -71.5718   25.8376  -74.3776 C.3       8 UNK        -0.1976 
     32 N         -72.7917   25.5822  -76.4752 N.am      8 UNK        -0.4313 
     33 C         -72.4149   24.6956  -77.4033 C.2       8 UNK         0.5041 
     34 O         -71.2534   24.5691  -77.7959 O.2       8 UNK        -0.5577 
     35 CA        -73.4915   23.7590  -77.9740 C.3       7 UNK         0.0284 
     36 CB        -73.6475   22.5246  -77.0708 C.3       7 UNK        -0.1958 
     37 N         -74.7992   24.3889  -78.1642 N.am      7 UNK        -0.4454 
     38 C         -75.0946   25.2510  -79.1478 C.2       7 UNK         0.5089 
     39 O         -74.2754   25.6604  -79.9710 O.2       7 UNK        -0.5125 
     40 CA        -76.5569   25.7236  -79.2389 C.3       6 UNK         0.0408 
     41 CB        -77.4475   24.6439  -79.8744 C.3       6 UNK        -0.1791 
     42 N         -77.0812   26.0860  -77.9232 N.am      6 UNK        -0.4762 
     43 C         -76.8054   27.2400  -77.2993 C.2       6 UNK         0.5007 
     44 O         -76.2347   28.1821  -77.8496 O.2       6 UNK        -0.5032 
     45 CA        -77.1970   27.3523  -75.8123 C.3       5 UNK         0.0783 
     46 C46       -78.4549   28.2249  -75.5724 C.3       11 UNK        -0.0857 
     47 S47       -78.2451   30.0388  -75.6720 S.3       11 UNK        -0.2512 
     48 C48       -76.7849   30.4278  -74.6409 C.3       11 UNK         0.0225 
     49 N         -77.3765   26.0392  -75.1879 N.am      5 UNK        -0.4615 
     50 C         -76.3900   25.2628  -74.7248 C.2       4 UNK         0.5053 
     51 O         -75.1973   25.5527  -74.7816 O.2       4 UNK        -0.5105 
     52 CA        -76.8078   23.9081  -74.1305 C.3       4 UNK         0.0263 
     53 CB        -77.1611   24.0594  -72.6424 C.3       4 UNK        -0.1981 
     54 N         -77.9317   23.2987  -74.8487 N.am      4 UNK        -0.4224 
     55 C         -77.8612   22.8742  -76.1192 C.2       3 UNK         0.4895 
     56 O         -76.8382   22.9333  -76.7990 O.2       3 UNK        -0.5091 
     57 CA        -79.1488   22.3405  -76.7675 C.3       3 UNK         0.0250 
     58 CB        -79.2754   20.8262  -76.5392 C.3       3 UNK        -0.1996 
     59 N         -80.3745   23.0068  -76.3192 N.am      3 UNK        -0.4254 
     60 C         -80.6283   24.3205  -76.4086 C.2       2 UNK         0.5004 
     61 O         -79.8215   25.1436  -76.8458 O.2       2 UNK        -0.5226 
     62 CA        -82.0070   24.8093  -75.9219 C.3       2 UNK         0.0269 
     63 CB        -82.8893   23.7065  -75.2917 C.3       2 UNK        -0.1926 
     64 N         -81.9024   25.9480  -75.0037 N.am      2 UNK        -0.4687 
     65 C         -81.2080   26.0160  -73.8588 C.2       1 UNK         0.5165 
     66 O         -80.4967   25.1013  -73.4373 O.2       1 UNK        -0.5079 
     67 H67       -85.1835   28.0116  -71.9931 H         1 UNK         0.0900 
     68 H68       -85.3592   29.3793  -73.0941 H         1 UNK         0.0900 
     69 H69       -85.8024   27.7548  -73.6261 H         1 UNK         0.0900 
     70 H70       -83.0625   27.3332  -71.7931 H         1 UNK         0.2959 
     71 H71       -81.0081   28.1276  -73.6859 H         1 UNK         0.1079 
     72 H72       -80.8265   26.5657  -71.0560 H         1 UNK         0.0837 
     73 H73       -79.4592   27.0834  -72.0097 H         1 UNK         0.0837 
     74 H74       -78.7778   28.2729  -69.4528 H         1 UNK         0.0685 
     75 H75       -78.7967   30.0090  -69.6497 H         1 UNK         0.0685 
     76 H76       -78.6256   30.3880  -72.5990 H         1 UNK         0.1434 
     77 H77       -74.8172   28.8053  -73.7421 H         1 UNK         0.1329 
     78 H78       -76.5937   27.5898  -70.0473 H         1 UNK         0.1335 
     79 H79       -74.6934   26.2006  -71.4719 H         1 UNK         0.0680 
     80 H80       -73.6876   27.2314  -72.4467 H         1 UNK         0.0680 
     81 H81       -73.1773   29.9143  -69.2050 H         1 UNK         0.1032 
     82 H82       -74.1655   29.9739  -70.6153 H         1 UNK         0.1032 
     83 H83       -72.0308   31.1324  -70.9022 H         1 UNK         0.0461 
     84 H84       -68.9101   28.6529  -70.8292 H         1 UNK         0.3453 
     85 H85       -70.0218   28.7228  -72.1734 H         1 UNK         0.3453 
     86 H86       -72.7684   29.0199  -72.7376 H         1 UNK         0.2984 
     87 H87       -73.1434   30.3329  -74.9795 H         1 UNK         0.0554 
     88 H88       -71.6748   32.1536  -75.8008 H         1 UNK         0.0847 
     89 H89       -71.7024   30.8302  -76.9532 H         1 UNK         0.0847 
     90 H90       -70.3072   31.0515  -75.8984 H         1 UNK         0.0847 
     91 H91       -70.7260   28.5713  -74.9208 H         1 UNK         0.3141 
     92 H92       -70.9514   26.5900  -76.3068 H         1 UNK         0.0743 
     93 H93       -70.9187   26.4716  -73.7773 H         1 UNK         0.0784 
     94 H94       -72.4820   25.6632  -73.8029 H         1 UNK         0.0784 
     95 H95       -71.0676   24.8780  -74.4933 H         1 UNK         0.0784 
     96 H96       -73.7680   25.6573  -76.1988 H         1 UNK         0.3213 
     97 H97       -73.1407   23.4163  -78.9501 H         1 UNK         0.0855 
     98 H98       -74.0294   22.7936  -76.0849 H         1 UNK         0.0814 
     99 H99       -72.6906   22.0214  -76.9253 H         1 UNK         0.0814 
    100 H100      -74.3324   21.7975  -77.5075 H         1 UNK         0.0814 
    101 H101      -75.5520   24.0500  -77.5692 H         1 UNK         0.3105 
    102 H102      -76.5902   26.6030  -79.8859 H         1 UNK         0.0547 
    103 H103      -78.4842   24.9742  -79.9426 H         1 UNK         0.0837 
    104 H104      -77.4296   23.7127  -79.3086 H         1 UNK         0.0837 
    105 H105      -77.1126   24.4132  -80.8864 H         1 UNK         0.0837 
    106 H106      -77.6170   25.3864  -77.4252 H         1 UNK         0.3020 
    107 H107      -76.3390   27.8193  -75.3352 H         1 UNK         0.1245 
    108 H108      -78.8304   28.0334  -74.5673 H         1 UNK         0.0781 
    109 H109      -79.2624   27.9289  -76.2451 H         1 UNK         0.0781 
    110 H110      -76.7793   31.4983  -74.4321 H         1 UNK         0.0836 
    111 H111      -75.8892   30.2331  -75.2338 H         1 UNK         0.0836 
    112 H112      -78.3229   25.6826  -75.1644 H         1 UNK         0.3022 
    113 H113      -75.9528   23.2332  -74.2112 H         1 UNK         0.0747 
    114 H114      -77.4230   23.1002  -72.1957 H         1 UNK         0.0793 
    115 H115      -76.3148   24.4568  -72.0813 H         1 UNK         0.0793 
    116 H116      -77.9985   24.7414  -72.4906 H         1 UNK         0.0793 
    117 H117      -78.8203   23.2593  -74.3677 H         1 UNK         0.3047 
    118 H118      -79.0642   22.5153  -77.8419 H         1 UNK         0.0822 
    119 H119      -80.1226   20.4109  -77.0854 H         1 UNK         0.0807 
    120 H120      -79.4043   20.5853  -75.4832 H         1 UNK         0.0807 
    121 H121      -78.3825   20.3036  -76.8860 H         1 UNK         0.0807 
    122 H122      -81.0927   22.4128  -75.9308 H         1 UNK         0.2946 
    123 H123      -82.5203   25.1767  -76.8120 H         1 UNK         0.1144 
    124 H124      -83.0901   22.9010  -75.9993 H         1 UNK         0.0793 
    125 H125      -83.8578   24.1081  -74.9931 H         1 UNK         0.0793 
    126 H126      -82.4303   23.2699  -74.4035 H         1 UNK         0.0793 
    127 H127      -82.4480   26.7691  -75.2503 H         1 UNK         0.2896 
@<TRIPOS>BOND
     1    1    2 1    
     2    1   67 1    
     3    1   68 1    
     4    1   69 1    
     5    2    3 2    
     6    2    4 am   BACKBONE|DICT|INTERRES
     7    4    5 1    
     8    4   70 1    
     9    5    6 1    
    10    5   65 1    
    11    5   71 1    
    12    6    7 1    
    13    6   72 1    
    14    6   73 1    
    15    7    8 1    
    16    8    9 1    
    17    8   74 1    
    18    8   75 1    
    19    9   10 ar   
    20    9   14 ar   
    21   10   11 ar   
    22   10   76 1    
    23   11   12 ar   
    24   11   48 1    
    25   12   13 ar   
    26   12   77 1    
    27   13   14 ar   
    28   13   15 1    
    29   14   78 1    
    30   15   16 1    
    31   15   79 1    
    32   15   80 1    
    33   16   17 1    
    34   17   18 1    
    35   17   81 1    
    36   17   82 1    
    37   18   19 1    
    38   18   22 1    
    39   18   83 1    
    40   19   20 am   BACKBONE|DICT|INTERRES
    41   19   21 2    
    42   20   84 1    
    43   20   85 1    
    44   22   23 am   BACKBONE|DICT|INTERRES
    45   22   86 1    
    46   23   24 2    
    47   23   25 1    
    48   25   26 1    
    49   25   27 1    
    50   25   87 1    
    51   26   88 1    
    52   26   89 1    
    53   26   90 1    
    54   27   28 am   BACKBONE|DICT|INTERRES
    55   27   91 1    
    56   28   29 2    
    57   28   30 1    
    58   30   31 1    
    59   30   32 1    
    60   30   92 1    
    61   31   93 1    
    62   31   94 1    
    63   31   95 1    
    64   32   33 am   BACKBONE|DICT|INTERRES
    65   32   96 1    
    66   33   34 2    
    67   33   35 1    
    68   35   36 1    
    69   35   37 1    
    70   35   97 1    
    71   36   98 1    
    72   36   99 1    
    73   36  100 1    
    74   37   38 am   BACKBONE|DICT|INTERRES
    75   37  101 1    
    76   38   39 2    
    77   38   40 1    
    78   40   41 1    
    79   40   42 1    
    80   40  102 1    
    81   41  103 1    
    82   41  104 1    
    83   41  105 1    
    84   42   43 am   BACKBONE|DICT|INTERRES
    85   42  106 1    
    86   43   44 2    
    87   43   45 1    
    88   45   46 1    
    89   45   49 1    
    90   45  107 1    
    91   46   47 1    
    92   46  108 1    
    93   46  109 1    
    94   47   48 1    
    95   48  110 1    
    96   48  111 1    
    97   49   50 am   BACKBONE|DICT|INTERRES
    98   49  112 1    
    99   50   51 2    
   100   50   52 1    
   101   52   53 1    
   102   52   54 1    
   103   52  113 1    
   104   53  114 1    
   105   53  115 1    
   106   53  116 1    
   107   54   55 am   BACKBONE|DICT|INTERRES
   108   54  117 1    
   109   55   56 2    
   110   55   57 1    
   111   57   58 1    
   112   57   59 1    
   113   57  118 1    
   114   58  119 1    
   115   58  120 1    
   116   58  121 1    
   117   59   60 am   BACKBONE|DICT|INTERRES
   118   59  122 1    
   119   60   61 2    
   120   60   62 1    
   121   62   63 1    
   122   62   64 1    
   123   62  123 1    
   124   63  124 1    
   125   63  125 1    
   126   63  126 1    
   127   64   65 am   BACKBONE|DICT|INTERRES
   128   64  127 1    
   129   65   66 2    
@<TRIPOS>SUBSTRUCTURE
     1 UNK         1 GROUP             0       ****    0 ROOT    
