@<TRIPOS>MOLECULE
3R135
127   129    1
SMALL
USER_CHARGES


@<TRIPOS>ATOM
      1 CA        -79.6269   30.6315  -76.7076 C.3       0 UNK        -0.1998 
      2 C         -80.5309   29.8018  -75.8084 C.2       0 UNK         0.4909 
      3 O         -81.7288   29.7036  -76.0713 O.2       0 UNK        -0.5240 
      4 N         -79.9538   29.1840  -74.7684 N.am      1 UNK        -0.4739 
      5 CA        -80.6020   28.3592  -73.7302 C.3       1 UNK         0.0864 
      6 C6        -81.7151   29.0977  -72.9322 C.3       11 UNK        -0.0881 
      7 S7        -81.1620   30.6695  -72.1818 S.3       11 UNK        -0.2682 
      8 C8        -80.8689   30.1860  -70.4501 C.3       11 UNK         0.0289 
      9 C9        -79.5468   29.4508  -70.2937 C.ar      11 UNK        -0.0687 
     10 C10       -79.4992   28.0555  -70.3609 C.ar      11 UNK        -0.0823 
     11 C11       -78.2790   27.3819  -70.2554 C.ar      11 UNK        -0.0830 
     12 C12       -77.1060   28.1116  -70.0393 C.ar      11 UNK        -0.1021 
     13 C13       -77.1398   29.5073  -69.9778 C.ar      11 UNK        -0.0753 
     14 C14       -78.3646   30.1708  -70.0979 C.ar      11 UNK        -0.0933 
     15 C15       -75.8540   30.3015  -69.7963 C.3       11 UNK         0.0166 
     16 S16       -75.4034   31.2102  -71.3096 S.3       11 UNK        -0.2615 
     17 C17       -74.9216   29.8623  -72.4457 C.3       11 UNK        -0.0865 
     18 CA        -73.4641   30.0156  -72.9682 C.3       10 UNK         0.0862 
     19 C         -72.4128   29.2938  -72.0711 C.2       10 UNK         0.5551 
     20 N         -71.4326   28.5873  -72.6238 N.am      10 UNK        -0.7319 
     21 O         -72.4763   29.3798  -70.8477 O.2       10 UNK        -0.5018 
     22 N         -73.3783   29.6421  -74.3881 N.am      10 UNK        -0.4509 
     23 C         -72.6464   30.2762  -75.3115 C.2       10 UNK         0.4899 
     24 O         -72.0042   31.3048  -75.0915 O.2       10 UNK        -0.4839 
     25 CA        -72.6221   29.6357  -76.7135 C.3       9 UNK         0.0222 
     26 CB        -71.5977   30.2962  -77.6603 C.3       9 UNK        -0.1966 
     27 N         -72.4252   28.1805  -76.6815 N.am      9 UNK        -0.4218 
     28 C         -71.4039   27.5088  -76.1245 C.2       9 UNK         0.5020 
     29 O         -70.4816   28.0590  -75.5208 O.2       9 UNK        -0.5274 
     30 CA        -71.4036   25.9682  -76.2101 C.3       8 UNK         0.0270 
     31 CB        -71.3658   25.3551  -74.7995 C.3       8 UNK        -0.1976 
     32 N         -72.5450   25.4078  -76.9378 N.am      8 UNK        -0.4313 
     33 C         -72.6856   25.3834  -78.2695 C.2       8 UNK         0.5041 
     34 O         -71.8214   25.7685  -79.0574 O.2       8 UNK        -0.5577 
     35 CA        -74.0466   24.9029  -78.8092 C.3       7 UNK         0.0284 
     36 CB        -74.0797   23.3718  -78.9358 C.3       7 UNK        -0.1958 
     37 N         -75.1812   25.3631  -77.9971 N.am      7 UNK        -0.4454 
     38 C         -75.4967   26.6536  -77.8055 C.2       7 UNK         0.5089 
     39 O         -74.8829   27.5904  -78.3148 O.2       7 UNK        -0.5125 
     40 CA        -76.6565   26.9586  -76.8466 C.3       6 UNK         0.0408 
     41 CB        -78.0008   26.7862  -77.5625 C.3       6 UNK        -0.1791 
     42 N         -76.5940   26.1384  -75.6318 N.am      6 UNK        -0.4762 
     43 C         -75.6513   26.3013  -74.6890 C.2       6 UNK         0.5007 
     44 O         -74.8531   27.2397  -74.6887 O.2       6 UNK        -0.5032 
     45 CA        -75.5034   25.2101  -73.6101 C.3       5 UNK         0.0783 
     46 C46       -76.1336   25.5938  -72.2509 C.3       11 UNK        -0.0857 
     47 S47       -77.9389   25.3811  -72.1321 S.3       11 UNK        -0.2512 
     48 C48       -78.2314   25.8686  -70.4009 C.3       11 UNK         0.0225 
     49 N         -75.8856   23.8789  -74.0926 N.am      5 UNK        -0.4615 
     50 C         -75.1264   23.1716  -74.9406 C.2       4 UNK         0.5053 
     51 O         -74.0575   23.5812  -75.3892 O.2       4 UNK        -0.5105 
     52 CA        -75.6301   21.7901  -75.3814 C.3       4 UNK         0.0263 
     53 CB        -75.2110   20.7175  -74.3638 C.3       4 UNK        -0.1981 
     54 N         -77.0745   21.7212  -75.5974 N.am      4 UNK        -0.4224 
     55 C         -77.7610   22.4224  -76.5103 C.2       3 UNK         0.4895 
     56 O         -77.2468   23.2597  -77.2572 O.2       3 UNK        -0.5091 
     57 CA        -79.2731   22.1189  -76.6234 C.3       3 UNK         0.0250 
     58 CB        -79.8233   21.2285  -75.4841 C.3       3 UNK        -0.1996 
     59 N         -80.1122   23.3169  -76.7515 N.am      3 UNK        -0.4254 
     60 C         -80.1147   24.3893  -75.9468 C.2       2 UNK         0.5004 
     61 O         -79.3034   24.5613  -75.0359 O.2       2 UNK        -0.5226 
     62 CA        -81.2003   25.4430  -76.2458 C.3       2 UNK         0.0269 
     63 CB        -82.6201   24.8880  -76.0012 C.3       2 UNK        -0.1926 
     64 N         -80.9891   26.7079  -75.5277 N.am      2 UNK        -0.4687 
     65 C         -81.0870   26.9707  -74.2153 C.2       1 UNK         0.5165 
     66 O         -81.5222   26.1723  -73.3838 O.2       1 UNK        -0.5079 
     67 H67       -78.5899   30.6158  -76.3721 H         1 UNK         0.0900 
     68 H68       -79.6587   30.2500  -77.7279 H         1 UNK         0.0900 
     69 H69       -79.9627   31.6681  -76.7206 H         1 UNK         0.0900 
     70 H70       -78.9605   29.3082  -74.6310 H         1 UNK         0.2959 
     71 H71       -79.7977   28.1286  -73.0322 H         1 UNK         0.1079 
     72 H72       -82.1133   28.4566  -72.1439 H         1 UNK         0.0837 
     73 H73       -82.5637   29.3175  -73.5817 H         1 UNK         0.0837 
     74 H74       -80.8606   31.0863  -69.8338 H         1 UNK         0.0685 
     75 H75       -81.6971   29.5780  -70.0830 H         1 UNK         0.0685 
     76 H76       -80.4085   27.4938  -70.5270 H         1 UNK         0.1434 
     77 H77       -76.1616   27.5946  -69.9418 H         1 UNK         0.1329 
     78 H78       -78.3932   31.2513  -70.0590 H         1 UNK         0.1335 
     79 H79       -75.0268   29.6527  -69.5034 H         1 UNK         0.0680 
     80 H80       -75.9866   31.0158  -68.9826 H         1 UNK         0.0680 
     81 H81       -75.6307   29.8954  -73.2746 H         1 UNK         0.1032 
     82 H82       -75.0740   28.8879  -71.9809 H         1 UNK         0.1032 
     83 H83       -73.2036   31.0731  -72.8987 H         1 UNK         0.0461 
     84 H84       -70.7606   28.1347  -72.0254 H         1 UNK         0.3453 
     85 H85       -71.3223   28.5407  -73.6288 H         1 UNK         0.3453 
     86 H86       -73.8527   28.7762  -74.6393 H         1 UNK         0.2984 
     87 H87       -73.6139   29.7989  -77.1372 H         1 UNK         0.0554 
     88 H88       -71.6297   29.8473  -78.6531 H         1 UNK         0.0847 
     89 H89       -70.5789   30.2029  -77.2826 H         1 UNK         0.0847 
     90 H90       -71.8043   31.3603  -77.7804 H         1 UNK         0.0847 
     91 H91       -73.1527   27.6460  -77.1431 H         1 UNK         0.3141 
     92 H92       -70.4896   25.6764  -76.7313 H         1 UNK         0.0743 
     93 H93       -71.3524   24.2656  -74.8381 H         1 UNK         0.0784 
     94 H94       -70.4726   25.6687  -74.2575 H         1 UNK         0.0784 
     95 H95       -72.2284   25.6610  -74.2075 H         1 UNK         0.0784 
     96 H96       -73.2680   24.9665  -76.3729 H         1 UNK         0.3213 
     97 H97       -74.1703   25.3266  -79.8082 H         1 UNK         0.0855 
     98 H98       -73.2933   23.0213  -79.6055 H         1 UNK         0.0814 
     99 H99       -75.0305   23.0261  -79.3420 H         1 UNK         0.0814 
    100 H100      -73.9279   22.8818  -77.9748 H         1 UNK         0.0814 
    101 H101      -75.7673   24.6505  -77.5719 H         1 UNK         0.3105 
    102 H102      -76.5740   28.0075  -76.5526 H         1 UNK         0.0547 
    103 H103      -78.8136   27.1529  -76.9430 H         1 UNK         0.0837 
    104 H104      -78.1983   25.7450  -77.8172 H         1 UNK         0.0837 
    105 H105      -78.0256   27.3588  -78.4908 H         1 UNK         0.0837 
    106 H106      -77.2391   25.3593  -75.5542 H         1 UNK         0.3020 
    107 H107      -74.4290   25.1687  -73.4161 H         1 UNK         0.1245 
    108 H108      -75.8782   26.6236  -72.0048 H         1 UNK         0.0781 
    109 H109      -75.6814   24.9828  -71.4681 H         1 UNK         0.0781 
    110 H110      -77.4614   25.4440  -69.7549 H         1 UNK         0.0836 
    111 H111      -79.1762   25.4338  -70.0708 H         1 UNK         0.0836 
    112 H112      -76.7805   23.5214  -73.7881 H         1 UNK         0.3022 
    113 H113      -75.1493   21.5570  -76.3334 H         1 UNK         0.0747 
    114 H114      -75.4682   19.7169  -74.7119 H         1 UNK         0.0793 
    115 H115      -74.1320   20.7340  -74.2024 H         1 UNK         0.0793 
    116 H116      -75.6877   20.8701  -73.3946 H         1 UNK         0.0793 
    117 H117      -77.5856   21.0665  -75.0235 H         1 UNK         0.3047 
    118 H118      -79.3905   21.5671  -77.5572 H         1 UNK         0.0822 
    119 H119      -79.6983   21.6959  -74.5060 H         1 UNK         0.0807 
    120 H120      -79.3343   20.2537  -75.4602 H         1 UNK         0.0807 
    121 H121      -80.8881   21.0372  -75.6189 H         1 UNK         0.0807 
    122 H122      -80.7771   23.2930  -77.5119 H         1 UNK         0.2946 
    123 H123      -81.1152   25.6896  -77.3056 H         1 UNK         0.1144 
    124 H124      -82.8466   24.0671  -76.6823 H         1 UNK         0.0793 
    125 H125      -82.7390   24.5038  -74.9877 H         1 UNK         0.0793 
    126 H126      -83.3787   25.6545  -76.1603 H         1 UNK         0.0793 
    127 H127      -80.6529   27.4710  -76.0965 H         1 UNK         0.2896 
@<TRIPOS>BOND
     1    1    2 1    
     2    1   67 1    
     3    1   68 1    
     4    1   69 1    
     5    2    3 2    
     6    2    4 am   BACKBONE|DICT|INTERRES
     7    4    5 1    
     8    4   70 1    
     9    5    6 1    
    10    5   65 1    
    11    5   71 1    
    12    6    7 1    
    13    6   72 1    
    14    6   73 1    
    15    7    8 1    
    16    8    9 1    
    17    8   74 1    
    18    8   75 1    
    19    9   10 ar   
    20    9   14 ar   
    21   10   11 ar   
    22   10   76 1    
    23   11   12 ar   
    24   11   48 1    
    25   12   13 ar   
    26   12   77 1    
    27   13   14 ar   
    28   13   15 1    
    29   14   78 1    
    30   15   16 1    
    31   15   79 1    
    32   15   80 1    
    33   16   17 1    
    34   17   18 1    
    35   17   81 1    
    36   17   82 1    
    37   18   19 1    
    38   18   22 1    
    39   18   83 1    
    40   19   20 am   BACKBONE|DICT|INTERRES
    41   19   21 2    
    42   20   84 1    
    43   20   85 1    
    44   22   23 am   BACKBONE|DICT|INTERRES
    45   22   86 1    
    46   23   24 2    
    47   23   25 1    
    48   25   26 1    
    49   25   27 1    
    50   25   87 1    
    51   26   88 1    
    52   26   89 1    
    53   26   90 1    
    54   27   28 am   BACKBONE|DICT|INTERRES
    55   27   91 1    
    56   28   29 2    
    57   28   30 1    
    58   30   31 1    
    59   30   32 1    
    60   30   92 1    
    61   31   93 1    
    62   31   94 1    
    63   31   95 1    
    64   32   33 am   BACKBONE|DICT|INTERRES
    65   32   96 1    
    66   33   34 2    
    67   33   35 1    
    68   35   36 1    
    69   35   37 1    
    70   35   97 1    
    71   36   98 1    
    72   36   99 1    
    73   36  100 1    
    74   37   38 am   BACKBONE|DICT|INTERRES
    75   37  101 1    
    76   38   39 2    
    77   38   40 1    
    78   40   41 1    
    79   40   42 1    
    80   40  102 1    
    81   41  103 1    
    82   41  104 1    
    83   41  105 1    
    84   42   43 am   BACKBONE|DICT|INTERRES
    85   42  106 1    
    86   43   44 2    
    87   43   45 1    
    88   45   46 1    
    89   45   49 1    
    90   45  107 1    
    91   46   47 1    
    92   46  108 1    
    93   46  109 1    
    94   47   48 1    
    95   48  110 1    
    96   48  111 1    
    97   49   50 am   BACKBONE|DICT|INTERRES
    98   49  112 1    
    99   50   51 2    
   100   50   52 1    
   101   52   53 1    
   102   52   54 1    
   103   52  113 1    
   104   53  114 1    
   105   53  115 1    
   106   53  116 1    
   107   54   55 am   BACKBONE|DICT|INTERRES
   108   54  117 1    
   109   55   56 2    
   110   55   57 1    
   111   57   58 1    
   112   57   59 1    
   113   57  118 1    
   114   58  119 1    
   115   58  120 1    
   116   58  121 1    
   117   59   60 am   BACKBONE|DICT|INTERRES
   118   59  122 1    
   119   60   61 2    
   120   60   62 1    
   121   62   63 1    
   122   62   64 1    
   123   62  123 1    
   124   63  124 1    
   125   63  125 1    
   126   63  126 1    
   127   64   65 am   BACKBONE|DICT|INTERRES
   128   64  127 1    
   129   65   66 2    
@<TRIPOS>SUBSTRUCTURE
     1 UNK         1 GROUP             0       ****    0 ROOT    
