@<TRIPOS>MOLECULE
3R135
127   129    1
SMALL
USER_CHARGES


@<TRIPOS>ATOM
      1 CA        -83.9333   27.6039  -70.8279 C.3       0 UNK        -0.1998 
      2 C         -82.8888   27.4551  -71.9232 C.2       0 UNK         0.4909 
      3 O         -81.9287   26.7048  -71.7478 O.2       0 UNK        -0.5240 
      4 N         -83.0739   28.1646  -73.0461 N.am      1 UNK        -0.4739 
      5 CA        -82.2242   28.2216  -74.2495 C.3       1 UNK         0.0864 
      6 C6        -80.7762   28.7176  -73.9932 C.3       11 UNK        -0.0881 
      7 S7        -80.7183   30.4415  -73.3971 S.3       11 UNK        -0.2682 
      8 C8        -80.3585   30.2386  -71.6227 C.3       11 UNK         0.0289 
      9 C9        -79.0016   29.5958  -71.3714 C.ar      11 UNK        -0.0687 
     10 C10       -78.9193   28.2970  -70.8615 C.ar      11 UNK        -0.0823 
     11 C11       -77.6776   27.7066  -70.6096 C.ar      11 UNK        -0.0830 
     12 C12       -76.5083   28.4305  -70.8722 C.ar      11 UNK        -0.1021 
     13 C13       -76.5784   29.7292  -71.3852 C.ar      11 UNK        -0.0753 
     14 C14       -77.8274   30.3076  -71.6285 C.ar      11 UNK        -0.0933 
     15 C15       -75.3131   30.5224  -71.6666 C.3       11 UNK         0.0166 
     16 S16       -74.8766   30.4473  -73.4301 S.3       11 UNK        -0.2615 
     17 C17       -73.7432   31.8761  -73.5723 C.3       11 UNK        -0.0865 
     18 CA        -72.2654   31.4966  -73.8526 C.3       10 UNK         0.0862 
     19 C         -71.5286   30.9234  -72.6046 C.2       10 UNK         0.5551 
     20 N         -70.7496   29.8533  -72.7166 N.am      10 UNK        -0.7319 
     21 O         -71.6502   31.4730  -71.5126 O.2       10 UNK        -0.5018 
     22 N         -72.1576   30.6629  -75.0565 N.am      10 UNK        -0.4509 
     23 C         -71.1678   30.7082  -75.9530 C.2       10 UNK         0.4899 
     24 O         -70.2474   31.5269  -75.9261 O.2       10 UNK        -0.4839 
     25 CA        -71.2238   29.6264  -77.0473 C.3       9 UNK         0.0222 
     26 CB        -69.9593   29.5926  -77.9320 C.3       9 UNK        -0.1966 
     27 N         -71.5144   28.2941  -76.4994 N.am      9 UNK        -0.4218 
     28 C         -70.7868   27.6117  -75.5970 C.2       9 UNK         0.5020 
     29 O         -69.7679   28.0585  -75.0681 O.2       9 UNK        -0.5274 
     30 CA        -71.2733   26.2097  -75.1748 C.3       8 UNK         0.0270 
     31 CB        -71.6571   26.2057  -73.6851 C.3       8 UNK        -0.1976 
     32 N         -72.3998   25.7116  -75.9701 N.am      8 UNK        -0.4313 
     33 C         -72.3067   25.3059  -77.2469 C.2       8 UNK         0.5041 
     34 O         -71.2335   25.1943  -77.8408 O.2       8 UNK        -0.5577 
     35 CA        -73.6097   25.0075  -78.0176 C.3       7 UNK         0.0284 
     36 CB        -73.7750   23.4913  -78.2139 C.3       7 UNK        -0.1958 
     37 N         -74.8314   25.5505  -77.4133 N.am      7 UNK        -0.4454 
     38 C         -75.0738   26.8394  -77.1296 C.2       7 UNK         0.5089 
     39 O         -74.3015   27.7577  -77.4096 O.2       7 UNK        -0.5125 
     40 CA        -76.3517   27.1423  -76.3223 C.3       6 UNK         0.0408 
     41 CB        -77.5295   27.4338  -77.2628 C.3       6 UNK        -0.1791 
     42 N         -76.7233   26.0717  -75.3874 N.am      6 UNK        -0.4762 
     43 C         -75.9420   25.6111  -74.3962 C.2       6 UNK         0.5007 
     44 O         -74.8126   26.0424  -74.1675 O.2       6 UNK        -0.5032 
     45 CA        -76.4743   24.4224  -73.5778 C.3       5 UNK         0.0783 
     46 C46       -77.4335   24.8649  -72.4426 C.3       11 UNK        -0.0857 
     47 S47       -76.5063   25.1793  -70.9039 S.3       11 UNK        -0.2512 
     48 C48       -77.6161   26.3083  -70.0056 C.3       11 UNK         0.0225 
     49 N         -77.0757   23.4266  -74.4670 N.am      5 UNK        -0.4615 
     50 C         -76.3864   22.4351  -75.0505 C.2       4 UNK         0.5053 
     51 O         -75.1935   22.2163  -74.8400 O.2       4 UNK        -0.5105 
     52 CA        -77.1393   21.5284  -76.0408 C.3       4 UNK         0.0263 
     53 CB        -77.6501   20.2658  -75.3283 C.3       4 UNK        -0.1981 
     54 N         -78.2598   22.1892  -76.7116 N.am      4 UNK        -0.4224 
     55 C         -78.1427   23.2153  -77.5658 C.2       3 UNK         0.4895 
     56 O         -77.0689   23.7092  -77.9058 O.2       3 UNK        -0.5091 
     57 CA        -79.4534   23.8302  -78.0826 C.3       3 UNK         0.0250 
     58 CB        -79.9471   23.0767  -79.3278 C.3       3 UNK        -0.1996 
     59 N         -80.5242   23.8802  -77.0794 N.am      3 UNK        -0.4254 
     60 C         -80.4368   24.4914  -75.8896 C.2       2 UNK         0.5004 
     61 O         -79.4078   25.0195  -75.4574 O.2       2 UNK        -0.5226 
     62 CA        -81.6978   24.4757  -75.0130 C.3       2 UNK         0.0269 
     63 CB        -81.5643   23.4166  -73.9071 C.3       2 UNK        -0.1926 
     64 N         -81.9179   25.7831  -74.3976 N.am      2 UNK        -0.4687 
     65 C         -82.2108   26.9089  -75.0591 C.2       1 UNK         0.5165 
     66 O         -82.4641   26.9412  -76.2646 O.2       1 UNK        -0.5079 
     67 H67       -84.7225   28.3018  -71.1071 H         1 UNK         0.0900 
     68 H68       -84.3924   26.6389  -70.6150 H         1 UNK         0.0900 
     69 H69       -83.4660   27.9684  -69.9134 H         1 UNK         0.0900 
     70 H70       -83.9037   28.7384  -73.1078 H         1 UNK         0.2959 
     71 H71       -82.7025   28.9569  -74.8993 H         1 UNK         0.1079 
     72 H72       -80.2507   28.0541  -73.3065 H         1 UNK         0.0837 
     73 H73       -80.1981   28.6910  -74.9192 H         1 UNK         0.0837 
     74 H74       -81.1559   29.6617  -71.1543 H         1 UNK         0.0685 
     75 H75       -80.3793   31.2207  -71.1485 H         1 UNK         0.0685 
     76 H76       -79.8266   27.7476  -70.6515 H         1 UNK         0.1434 
     77 H77       -75.5436   27.9828  -70.6753 H         1 UNK         0.1329 
     78 H78       -77.8866   31.3122  -72.0249 H         1 UNK         0.1335 
     79 H79       -75.4699   31.5590  -71.3648 H         1 UNK         0.0680 
     80 H80       -74.4782   30.1485  -71.0716 H         1 UNK         0.0680 
     81 H81       -74.1092   32.4949  -74.3930 H         1 UNK         0.1032 
     82 H82       -73.8154   32.5133  -72.6892 H         1 UNK         0.1032 
     83 H83       -71.7507   32.4373  -74.0570 H         1 UNK         0.0461 
     84 H84       -70.5843   29.4160  -73.6137 H         1 UNK         0.3453 
     85 H85       -70.2772   29.5066  -71.8973 H         1 UNK         0.3453 
     86 H86       -72.8634   29.9460  -75.1468 H         1 UNK         0.2984 
     87 H87       -72.0680   29.8825  -77.6892 H         1 UNK         0.0554 
     88 H88       -70.0389   28.8313  -78.7080 H         1 UNK         0.0847 
     89 H89       -69.0613   29.3844  -77.3494 H         1 UNK         0.0847 
     90 H90       -69.8069   30.5498  -78.4319 H         1 UNK         0.0847 
     91 H91       -72.3782   27.8746  -76.8320 H         1 UNK         0.3141 
     92 H92       -70.4352   25.5229  -75.3093 H         1 UNK         0.0743 
     93 H93       -72.4272   26.9463  -73.4649 H         1 UNK         0.0784 
     94 H94       -72.0278   25.2303  -73.3693 H         1 UNK         0.0784 
     95 H95       -70.7954   26.4425  -73.0596 H         1 UNK         0.0784 
     96 H96       -73.3162   25.7745  -75.5356 H         1 UNK         0.3213 
     97 H97       -73.5059   25.4698  -79.0013 H         1 UNK         0.0855 
     98 H98       -73.9557   22.9807  -77.2673 H         1 UNK         0.0814 
     99 H99       -72.8805   23.0513  -78.6571 H         1 UNK         0.0814 
    100 H100      -74.6059   23.2654  -78.8822 H         1 UNK         0.0814 
    101 H101      -75.5697   24.8804  -77.2197 H         1 UNK         0.3105 
    102 H102      -76.1605   28.0375  -75.7268 H         1 UNK         0.0547 
    103 H103      -77.3124   28.2898  -77.9030 H         1 UNK         0.0837 
    104 H104      -77.7398   26.5862  -77.9141 H         1 UNK         0.0837 
    105 H105      -78.4380   27.6651  -76.7064 H         1 UNK         0.0837 
    106 H106      -77.6529   25.6709  -75.4968 H         1 UNK         0.3020 
    107 H107      -75.6005   23.9578  -73.1136 H         1 UNK         0.1245 
    108 H108      -78.1538   24.0756  -72.2215 H         1 UNK         0.0781 
    109 H109      -78.0263   25.7389  -72.7226 H         1 UNK         0.0781 
    110 H110      -77.2663   26.3930  -68.9760 H         1 UNK         0.0836 
    111 H111      -78.6088   25.8574  -69.9555 H         1 UNK         0.0836 
    112 H112      -78.0359   23.5936  -74.7419 H         1 UNK         0.3022 
    113 H113      -76.4255   21.2236  -76.8094 H         1 UNK         0.0747 
    114 H114      -78.1096   19.5708  -76.0314 H         1 UNK         0.0793 
    115 H115      -76.8311   19.7351  -74.8405 H         1 UNK         0.0793 
    116 H116      -78.3866   20.5049  -74.5599 H         1 UNK         0.0793 
    117 H117      -79.1866   21.8560  -76.4899 H         1 UNK         0.3047 
    118 H118      -79.2382   24.8589  -78.3752 H         1 UNK         0.0822 
    119 H119      -80.2222   22.0468  -79.0968 H         1 UNK         0.0807 
    120 H120      -79.1723   23.0427  -80.0954 H         1 UNK         0.0807 
    121 H121      -80.8153   23.5658  -79.7701 H         1 UNK         0.0807 
    122 H122      -81.4046   23.4629  -77.3463 H         1 UNK         0.2946 
    123 H123      -82.5667   24.2393  -75.6311 H         1 UNK         0.1144 
    124 H124      -81.4177   22.4220  -74.3305 H         1 UNK         0.0793 
    125 H125      -82.4607   23.3758  -73.2879 H         1 UNK         0.0793 
    126 H126      -80.7160   23.6225  -73.2525 H         1 UNK         0.0793 
    127 H127      -81.7350   25.8697  -73.4005 H         1 UNK         0.2896 
@<TRIPOS>BOND
     1    1    2 1    
     2    1   67 1    
     3    1   68 1    
     4    1   69 1    
     5    2    3 2    
     6    2    4 am   BACKBONE|DICT|INTERRES
     7    4    5 1    
     8    4   70 1    
     9    5    6 1    
    10    5   65 1    
    11    5   71 1    
    12    6    7 1    
    13    6   72 1    
    14    6   73 1    
    15    7    8 1    
    16    8    9 1    
    17    8   74 1    
    18    8   75 1    
    19    9   10 ar   
    20    9   14 ar   
    21   10   11 ar   
    22   10   76 1    
    23   11   12 ar   
    24   11   48 1    
    25   12   13 ar   
    26   12   77 1    
    27   13   14 ar   
    28   13   15 1    
    29   14   78 1    
    30   15   16 1    
    31   15   79 1    
    32   15   80 1    
    33   16   17 1    
    34   17   18 1    
    35   17   81 1    
    36   17   82 1    
    37   18   19 1    
    38   18   22 1    
    39   18   83 1    
    40   19   20 am   BACKBONE|DICT|INTERRES
    41   19   21 2    
    42   20   84 1    
    43   20   85 1    
    44   22   23 am   BACKBONE|DICT|INTERRES
    45   22   86 1    
    46   23   24 2    
    47   23   25 1    
    48   25   26 1    
    49   25   27 1    
    50   25   87 1    
    51   26   88 1    
    52   26   89 1    
    53   26   90 1    
    54   27   28 am   BACKBONE|DICT|INTERRES
    55   27   91 1    
    56   28   29 2    
    57   28   30 1    
    58   30   31 1    
    59   30   32 1    
    60   30   92 1    
    61   31   93 1    
    62   31   94 1    
    63   31   95 1    
    64   32   33 am   BACKBONE|DICT|INTERRES
    65   32   96 1    
    66   33   34 2    
    67   33   35 1    
    68   35   36 1    
    69   35   37 1    
    70   35   97 1    
    71   36   98 1    
    72   36   99 1    
    73   36  100 1    
    74   37   38 am   BACKBONE|DICT|INTERRES
    75   37  101 1    
    76   38   39 2    
    77   38   40 1    
    78   40   41 1    
    79   40   42 1    
    80   40  102 1    
    81   41  103 1    
    82   41  104 1    
    83   41  105 1    
    84   42   43 am   BACKBONE|DICT|INTERRES
    85   42  106 1    
    86   43   44 2    
    87   43   45 1    
    88   45   46 1    
    89   45   49 1    
    90   45  107 1    
    91   46   47 1    
    92   46  108 1    
    93   46  109 1    
    94   47   48 1    
    95   48  110 1    
    96   48  111 1    
    97   49   50 am   BACKBONE|DICT|INTERRES
    98   49  112 1    
    99   50   51 2    
   100   50   52 1    
   101   52   53 1    
   102   52   54 1    
   103   52  113 1    
   104   53  114 1    
   105   53  115 1    
   106   53  116 1    
   107   54   55 am   BACKBONE|DICT|INTERRES
   108   54  117 1    
   109   55   56 2    
   110   55   57 1    
   111   57   58 1    
   112   57   59 1    
   113   57  118 1    
   114   58  119 1    
   115   58  120 1    
   116   58  121 1    
   117   59   60 am   BACKBONE|DICT|INTERRES
   118   59  122 1    
   119   60   61 2    
   120   60   62 1    
   121   62   63 1    
   122   62   64 1    
   123   62  123 1    
   124   63  124 1    
   125   63  125 1    
   126   63  126 1    
   127   64   65 am   BACKBONE|DICT|INTERRES
   128   64  127 1    
   129   65   66 2    
@<TRIPOS>SUBSTRUCTURE
     1 UNK         1 GROUP             0       ****    0 ROOT    
