@<TRIPOS>MOLECULE
3R135
127   129    1
SMALL
USER_CHARGES


@<TRIPOS>ATOM
      1 CA        -78.2437   30.2704  -75.8054 C.3       0 UNK        -0.1998 
      2 C         -78.7410   28.9848  -75.1623 C.2       0 UNK         0.4909 
      3 O         -78.0721   27.9533  -75.2477 O.2       0 UNK        -0.5240 
      4 N         -79.9084   29.0561  -74.5126 N.am      1 UNK        -0.4739 
      5 CA        -80.5438   27.9563  -73.7828 C.3       1 UNK         0.0864 
      6 C6        -81.6934   28.4553  -72.8681 C.3       11 UNK        -0.0881 
      7 S7        -81.2506   29.8555  -71.7873 S.3       11 UNK        -0.2682 
      8 C8        -80.3570   29.0262  -70.4342 C.3       11 UNK         0.0289 
      9 C9        -78.8627   28.9117  -70.7099 C.ar      11 UNK        -0.0687 
     10 C10       -78.2313   27.6623  -70.7253 C.ar      11 UNK        -0.0823 
     11 C11       -76.8455   27.5735  -70.8967 C.ar      11 UNK        -0.0830 
     12 C12       -76.0953   28.7418  -71.0538 C.ar      11 UNK        -0.1021 
     13 C13       -76.7163   29.9926  -71.0765 C.ar      11 UNK        -0.0753 
     14 C14       -78.0995   30.0699  -70.8963 C.ar      11 UNK        -0.0933 
     15 C15       -75.8957   31.2623  -71.2578 C.3       11 UNK         0.0166 
     16 S16       -75.6664   31.6908  -73.0155 S.3       11 UNK        -0.2615 
     17 C17       -74.2362   30.6498  -73.4727 C.3       11 UNK        -0.0865 
     18 CA        -72.8919   31.4189  -73.5564 C.3       10 UNK         0.0862 
     19 C         -72.4257   31.9526  -72.1722 C.2       10 UNK         0.5551 
     20 N         -72.5664   33.2469  -71.9211 N.am      10 UNK        -0.7319 
     21 O         -71.9705   31.1948  -71.3174 O.2       10 UNK        -0.5018 
     22 N         -71.8748   30.5549  -74.1629 N.am      10 UNK        -0.4509 
     23 C         -70.6541   30.9215  -74.5651 C.2       10 UNK         0.4899 
     24 O         -70.2576   32.0873  -74.5694 O.2       10 UNK        -0.4839 
     25 CA        -69.7080   29.8080  -75.0629 C.3       9 UNK         0.0222 
     26 CB        -68.8595   29.2517  -73.9019 C.3       9 UNK        -0.1966 
     27 N         -70.3597   28.7253  -75.8213 N.am      9 UNK        -0.4218 
     28 C         -71.2550   27.8188  -75.4010 C.2       9 UNK         0.5020 
     29 O         -71.6729   27.7401  -74.2434 O.2       9 UNK        -0.5274 
     30 CA        -71.8337   26.8805  -76.4721 C.3       8 UNK         0.0270 
     31 CB        -71.6325   25.4066  -76.0834 C.3       8 UNK        -0.1976 
     32 N         -73.2600   27.1500  -76.6752 N.am      8 UNK        -0.4313 
     33 C         -73.7459   28.2925  -77.1875 C.2       8 UNK         0.5041 
     34 O         -73.0231   29.2056  -77.5931 O.2       8 UNK        -0.5577 
     35 CA        -75.2781   28.4699  -77.2539 C.3       7 UNK         0.0284 
     36 CB        -75.7059   29.3848  -78.4224 C.3       7 UNK        -0.1958 
     37 N         -76.0393   27.2158  -77.2722 N.am      7 UNK        -0.4454 
     38 C         -75.9763   26.2475  -78.1980 C.2       7 UNK         0.5089 
     39 O         -75.2712   26.3103  -79.2069 O.2       7 UNK        -0.5125 
     40 CA        -76.8332   24.9902  -77.9408 C.3       6 UNK         0.0408 
     41 CB        -76.3648   23.7841  -78.7807 C.3       6 UNK        -0.1791 
     42 N         -76.9387   24.6051  -76.5264 N.am      6 UNK        -0.4762 
     43 C         -75.9379   24.3829  -75.6578 C.2       6 UNK         0.5007 
     44 O         -74.7490   24.5581  -75.9241 O.2       6 UNK        -0.5032 
     45 CA        -76.3329   23.8538  -74.2662 C.3       5 UNK         0.0783 
     46 C46       -76.8291   24.9925  -73.3368 C.3       11 UNK        -0.0857 
     47 S47       -75.4310   25.8148  -72.5048 S.3       11 UNK        -0.2512 
     48 C48       -76.1343   26.2282  -70.8753 C.3       11 UNK         0.0225 
     49 N         -77.3289   22.7885  -74.4023 N.am      5 UNK        -0.4615 
     50 C         -77.0685   21.4757  -74.3236 C.2       4 UNK         0.5053 
     51 O         -75.9581   21.0126  -74.0615 O.2       4 UNK        -0.5105 
     52 CA        -78.2390   20.5023  -74.5697 C.3       4 UNK         0.0263 
     53 CB        -78.8771   20.0859  -73.2346 C.3       4 UNK        -0.1981 
     54 N         -79.2746   21.0578  -75.4428 N.am      4 UNK        -0.4224 
     55 C         -79.1252   21.2847  -76.7555 C.2       3 UNK         0.4895 
     56 O         -78.1541   20.8973  -77.4046 O.2       3 UNK        -0.5091 
     57 CA        -80.2264   22.0998  -77.4668 C.3       3 UNK         0.0250 
     58 CB        -81.0887   21.1805  -78.3470 C.3       3 UNK        -0.1996 
     59 N         -81.1050   22.8754  -76.5775 N.am      3 UNK        -0.4254 
     60 C         -80.7048   23.8363  -75.7329 C.2       2 UNK         0.5004 
     61 O         -79.5246   24.1584  -75.5809 O.2       2 UNK        -0.5226 
     62 CA        -81.7922   24.4791  -74.8583 C.3       2 UNK         0.0269 
     63 CB        -82.3023   23.4750  -73.8091 C.3       2 UNK        -0.1926 
     64 N         -81.2910   25.6625  -74.1565 N.am      2 UNK        -0.4687 
     65 C         -81.0771   26.8562  -74.7244 C.2       1 UNK         0.5165 
     66 O         -81.3488   27.1126  -75.9012 O.2       1 UNK        -0.5079 
     67 H67       -77.2120   30.4644  -75.5150 H         1 UNK         0.0900 
     68 H68       -78.8397   31.1314  -75.5033 H         1 UNK         0.0900 
     69 H69       -78.2926   30.1900  -76.8898 H         1 UNK         0.0900 
     70 H70       -80.4102   29.9317  -74.4871 H         1 UNK         0.2959 
     71 H71       -79.7715   27.5031  -73.1583 H         1 UNK         0.1079 
     72 H72       -82.5405   28.7819  -73.4754 H         1 UNK         0.0837 
     73 H73       -82.0738   27.6439  -72.2446 H         1 UNK         0.0837 
     74 H74       -80.4936   29.6103  -69.5232 H         1 UNK         0.0685 
     75 H75       -80.8012   28.0495  -70.2367 H         1 UNK         0.0685 
     76 H76       -78.8127   26.7624  -70.5785 H         1 UNK         0.1434 
     77 H77       -75.0226   28.6667  -71.1565 H         1 UNK         0.1329 
     78 H78       -78.5853   31.0361  -70.8888 H         1 UNK         0.1335 
     79 H79       -76.3953   32.0964  -70.7628 H         1 UNK         0.0680 
     80 H80       -74.9278   31.1604  -70.7653 H         1 UNK         0.0680 
     81 H81       -74.4659   30.2173  -74.4474 H         1 UNK         0.1032 
     82 H82       -74.1437   29.8015  -72.7968 H         1 UNK         0.1032 
     83 H83       -73.0291   32.2674  -74.2300 H         1 UNK         0.0461 
     84 H84       -72.2798   33.6082  -71.0250 H         1 UNK         0.3453 
     85 H85       -72.9554   33.8695  -72.6121 H         1 UNK         0.3453 
     86 H86       -72.0542   29.5546  -74.1322 H         1 UNK         0.2984 
     87 H87       -69.0219   30.2809  -75.7679 H         1 UNK         0.0554 
     88 H88       -68.1374   28.5151  -74.2542 H         1 UNK         0.0847 
     89 H89       -69.4750   28.7789  -73.1353 H         1 UNK         0.0847 
     90 H90       -68.2968   30.0496  -73.4151 H         1 UNK         0.0847 
     91 H91       -70.1556   28.7330  -76.8120 H         1 UNK         0.3141 
     92 H92       -71.3186   27.0521  -77.4198 H         1 UNK         0.0743 
     93 H93       -72.1386   25.1631  -75.1478 H         1 UNK         0.0784 
     94 H94       -72.0165   24.7375  -76.8539 H         1 UNK         0.0784 
     95 H95       -70.5741   25.1783  -75.9511 H         1 UNK         0.0784 
     96 H96       -73.9052   26.4280  -76.3701 H         1 UNK         0.3213 
     97 H97       -75.5559   28.9653  -76.3240 H         1 UNK         0.0855 
     98 H98       -75.3288   30.3987  -78.2828 H         1 UNK         0.0814 
     99 H99       -76.7895   29.4496  -78.5092 H         1 UNK         0.0814 
    100 H100      -75.3195   29.0247  -79.3765 H         1 UNK         0.0814 
    101 H101      -76.6813   27.0925  -76.4932 H         1 UNK         0.3105 
    102 H102      -77.8450   25.2438  -78.2603 H         1 UNK         0.0547 
    103 H103      -76.3819   24.0138  -79.8467 H         1 UNK         0.0837 
    104 H104      -75.3464   23.4884  -78.5261 H         1 UNK         0.0837 
    105 H105      -77.0111   22.9211  -78.6317 H         1 UNK         0.0837 
    106 H106      -77.8922   24.4794  -76.1862 H         1 UNK         0.3020 
    107 H107      -75.4283   23.4260  -73.8271 H         1 UNK         0.1245 
    108 H108      -77.4842   24.5786  -72.5691 H         1 UNK         0.0781 
    109 H109      -77.4306   25.7326  -73.8680 H         1 UNK         0.0781 
    110 H110      -75.3205   26.2750  -70.1503 H         1 UNK         0.0836 
    111 H111      -76.7954   25.4321  -70.5305 H         1 UNK         0.0836 
    112 H112      -78.2561   23.0926  -74.6835 H         1 UNK         0.3022 
    113 H113      -77.8310   19.6094  -75.0484 H         1 UNK         0.0747 
    114 H114      -79.6613   19.3433  -73.3834 H         1 UNK         0.0793 
    115 H115      -78.1347   19.6412  -72.5701 H         1 UNK         0.0793 
    116 H116      -79.3140   20.9375  -72.7113 H         1 UNK         0.0793 
    117 H117      -80.1188   21.3847  -74.9977 H         1 UNK         0.3047 
    118 H118      -79.7153   22.8133  -78.1168 H         1 UNK         0.0822 
    119 H119      -81.8008   21.7525  -78.9421 H         1 UNK         0.0807 
    120 H120      -81.6493   20.4601  -77.7501 H         1 UNK         0.0807 
    121 H121      -80.4705   20.6138  -79.0450 H         1 UNK         0.0807 
    122 H122      -82.0902   22.6567  -76.6269 H         1 UNK         0.2946 
    123 H123      -82.6210   24.7771  -75.5052 H         1 UNK         0.1144 
    124 H124      -82.7440   22.5953  -74.2789 H         1 UNK         0.0793 
    125 H125      -83.0749   23.9188  -73.1807 H         1 UNK         0.0793 
    126 H126      -81.4999   23.1282  -73.1560 H         1 UNK         0.0793 
    127 H127      -81.0322   25.5283  -73.1904 H         1 UNK         0.2896 
@<TRIPOS>BOND
     1    1    2 1    
     2    1   67 1    
     3    1   68 1    
     4    1   69 1    
     5    2    3 2    
     6    2    4 am   BACKBONE|DICT|INTERRES
     7    4    5 1    
     8    4   70 1    
     9    5    6 1    
    10    5   65 1    
    11    5   71 1    
    12    6    7 1    
    13    6   72 1    
    14    6   73 1    
    15    7    8 1    
    16    8    9 1    
    17    8   74 1    
    18    8   75 1    
    19    9   10 ar   
    20    9   14 ar   
    21   10   11 ar   
    22   10   76 1    
    23   11   12 ar   
    24   11   48 1    
    25   12   13 ar   
    26   12   77 1    
    27   13   14 ar   
    28   13   15 1    
    29   14   78 1    
    30   15   16 1    
    31   15   79 1    
    32   15   80 1    
    33   16   17 1    
    34   17   18 1    
    35   17   81 1    
    36   17   82 1    
    37   18   19 1    
    38   18   22 1    
    39   18   83 1    
    40   19   20 am   BACKBONE|DICT|INTERRES
    41   19   21 2    
    42   20   84 1    
    43   20   85 1    
    44   22   23 am   BACKBONE|DICT|INTERRES
    45   22   86 1    
    46   23   24 2    
    47   23   25 1    
    48   25   26 1    
    49   25   27 1    
    50   25   87 1    
    51   26   88 1    
    52   26   89 1    
    53   26   90 1    
    54   27   28 am   BACKBONE|DICT|INTERRES
    55   27   91 1    
    56   28   29 2    
    57   28   30 1    
    58   30   31 1    
    59   30   32 1    
    60   30   92 1    
    61   31   93 1    
    62   31   94 1    
    63   31   95 1    
    64   32   33 am   BACKBONE|DICT|INTERRES
    65   32   96 1    
    66   33   34 2    
    67   33   35 1    
    68   35   36 1    
    69   35   37 1    
    70   35   97 1    
    71   36   98 1    
    72   36   99 1    
    73   36  100 1    
    74   37   38 am   BACKBONE|DICT|INTERRES
    75   37  101 1    
    76   38   39 2    
    77   38   40 1    
    78   40   41 1    
    79   40   42 1    
    80   40  102 1    
    81   41  103 1    
    82   41  104 1    
    83   41  105 1    
    84   42   43 am   BACKBONE|DICT|INTERRES
    85   42  106 1    
    86   43   44 2    
    87   43   45 1    
    88   45   46 1    
    89   45   49 1    
    90   45  107 1    
    91   46   47 1    
    92   46  108 1    
    93   46  109 1    
    94   47   48 1    
    95   48  110 1    
    96   48  111 1    
    97   49   50 am   BACKBONE|DICT|INTERRES
    98   49  112 1    
    99   50   51 2    
   100   50   52 1    
   101   52   53 1    
   102   52   54 1    
   103   52  113 1    
   104   53  114 1    
   105   53  115 1    
   106   53  116 1    
   107   54   55 am   BACKBONE|DICT|INTERRES
   108   54  117 1    
   109   55   56 2    
   110   55   57 1    
   111   57   58 1    
   112   57   59 1    
   113   57  118 1    
   114   58  119 1    
   115   58  120 1    
   116   58  121 1    
   117   59   60 am   BACKBONE|DICT|INTERRES
   118   59  122 1    
   119   60   61 2    
   120   60   62 1    
   121   62   63 1    
   122   62   64 1    
   123   62  123 1    
   124   63  124 1    
   125   63  125 1    
   126   63  126 1    
   127   64   65 am   BACKBONE|DICT|INTERRES
   128   64  127 1    
   129   65   66 2    
@<TRIPOS>SUBSTRUCTURE
     1 UNK         1 GROUP             0       ****    0 ROOT    
