@<TRIPOS>MOLECULE
3R135
127   129    1
SMALL
USER_CHARGES


@<TRIPOS>ATOM
      1 CA        -79.6642   20.8843  -71.3687 C.3       0 UNK        -0.1998 
      2 C         -80.4780   22.1550  -71.1789 C.2       0 UNK         0.4909 
      3 O         -81.6957   22.0861  -71.0042 O.2       0 UNK        -0.5240 
      4 N         -79.8163   23.3181  -71.2114 N.am      1 UNK        -0.4739 
      5 CA        -80.4178   24.6524  -71.1227 C.3       1 UNK         0.0864 
      6 C6        -79.4019   25.7074  -70.5990 C.3       11 UNK        -0.0881 
      7 S7        -77.7759   25.7196  -71.4439 S.3       11 UNK        -0.2682 
      8 C8        -77.0791   27.3035  -70.8611 C.3       11 UNK         0.0289 
      9 C9        -77.2822   28.4774  -71.8193 C.ar      11 UNK        -0.0687 
     10 C10       -78.4745   28.6537  -72.5311 C.ar      11 UNK        -0.0823 
     11 C11       -78.6397   29.7376  -73.3981 C.ar      11 UNK        -0.0830 
     12 C12       -77.6075   30.6684  -73.5397 C.ar      11 UNK        -0.1021 
     13 C13       -76.4184   30.5179  -72.8225 C.ar      11 UNK        -0.0753 
     14 C14       -76.2607   29.4216  -71.9690 C.ar      11 UNK        -0.0933 
     15 C15       -75.3073   31.5450  -72.9590 C.3       11 UNK         0.0166 
     16 S16       -74.1283   31.0599  -74.2525 S.3       11 UNK        -0.2615 
     17 C17       -72.8409   32.3434  -74.0563 C.3       11 UNK        -0.0865 
     18 CA        -71.5964   31.8633  -73.2619 C.3       10 UNK         0.0862 
     19 C         -71.8779   31.7891  -71.7307 C.2       10 UNK         0.5551 
     20 N         -71.8251   30.6237  -71.0968 N.am      10 UNK        -0.7319 
     21 O         -72.1453   32.8140  -71.1085 O.2       10 UNK        -0.5018 
     22 N         -71.0160   30.6518  -73.8622 N.am      10 UNK        -0.4509 
     23 C         -69.7964   30.1609  -73.6174 C.2       10 UNK         0.4899 
     24 O         -68.9714   30.7188  -72.8922 O.2       10 UNK        -0.4839 
     25 CA        -69.4574   28.8092  -74.2787 C.3       9 UNK         0.0222 
     26 CB        -68.1228   28.2237  -73.7789 C.3       9 UNK        -0.1966 
     27 N         -70.5189   27.8165  -74.0738 N.am      9 UNK        -0.4218 
     28 C         -71.6289   27.7078  -74.8150 C.2       9 UNK         0.5020 
     29 O         -71.8985   28.4620  -75.7523 O.2       9 UNK        -0.5274 
     30 CA        -72.6239   26.6095  -74.4025 C.3       8 UNK         0.0270 
     31 CB        -73.7794   27.2113  -73.5833 C.3       8 UNK        -0.1976 
     32 N         -73.1800   25.9020  -75.5560 N.am      8 UNK        -0.4313 
     33 C         -72.4805   25.1851  -76.4465 C.2       8 UNK         0.5041 
     34 O         -71.2658   24.9918  -76.3724 O.2       8 UNK        -0.5577 
     35 CA        -73.2665   24.5616  -77.6101 C.3       7 UNK         0.0284 
     36 CB        -73.8221   23.1850  -77.2072 C.3       7 UNK        -0.1958 
     37 N         -74.3696   25.4198  -78.0479 N.am      7 UNK        -0.4454 
     38 C         -74.2883   26.3254  -79.0319 C.2       7 UNK         0.5089 
     39 O         -73.2666   26.5301  -79.6884 O.2       7 UNK        -0.5125 
     40 CA        -75.5631   27.1208  -79.3741 C.3       6 UNK         0.0408 
     41 CB        -76.2413   26.5265  -80.6190 C.3       6 UNK        -0.1791 
     42 N         -76.5372   27.1597  -78.2816 N.am      6 UNK        -0.4762 
     43 C         -76.4626   27.9771  -77.2198 C.2       6 UNK         0.5007 
     44 O         -75.5850   28.8260  -77.0727 O.2       6 UNK        -0.5032 
     45 CA        -77.5545   27.8093  -76.1396 C.3       5 UNK         0.0783 
     46 C46       -78.7477   28.7433  -76.4796 C.3       11 UNK        -0.0857 
     47 S47       -80.1851   28.5445  -75.3736 S.3       11 UNK        -0.2512 
     48 C48       -79.9344   29.8983  -74.1818 C.3       11 UNK         0.0225 
     49 N         -77.9803   26.4139  -75.9609 N.am      5 UNK        -0.4615 
     50 C         -77.1896   25.3543  -75.7437 C.2       4 UNK         0.5053 
     51 O         -75.9704   25.4401  -75.6076 O.2       4 UNK        -0.5105 
     52 CA        -77.8318   23.9539  -75.7395 C.3       4 UNK         0.0263 
     53 CB        -77.7304   23.3122  -74.3479 C.3       4 UNK        -0.1981 
     54 N         -79.2300   23.9150  -76.1712 N.am      4 UNK        -0.4224 
     55 C         -79.7206   24.2359  -77.3746 C.2       3 UNK         0.4895 
     56 O         -79.0175   24.6005  -78.3181 O.2       3 UNK        -0.5091 
     57 CA        -81.2543   24.1957  -77.5472 C.3       3 UNK         0.0250 
     58 CB        -81.7038   22.8541  -78.1580 C.3       3 UNK        -0.1996 
     59 N         -82.0302   24.5250  -76.3346 N.am      3 UNK        -0.4254 
     60 C         -82.1037   23.8471  -75.1789 C.2       2 UNK         0.5004 
     61 O         -81.5271   22.7768  -74.9709 O.2       2 UNK        -0.5226 
     62 CA        -82.9254   24.4842  -74.0476 C.3       2 UNK         0.0269 
     63 CB        -84.3012   23.8097  -73.9299 C.3       2 UNK        -0.1926 
     64 N         -82.2153   24.3604  -72.7723 N.am      2 UNK        -0.4687 
     65 C         -81.1052   25.0392  -72.4531 C.2       1 UNK         0.5165 
     66 O         -80.6240   25.9095  -73.1771 O.2       1 UNK        -0.5079 
     67 H67       -79.7814   20.2303  -70.5051 H         1 UNK         0.0900 
     68 H68       -78.6022   21.0954  -71.4939 H         1 UNK         0.0900 
     69 H69       -80.0097   20.3490  -72.2528 H         1 UNK         0.0900 
     70 H70       -78.8173   23.3207  -71.3638 H         1 UNK         0.2959 
     71 H71       -81.2184   24.6075  -70.3805 H         1 UNK         0.1079 
     72 H72       -79.8423   26.7051  -70.6242 H         1 UNK         0.0837 
     73 H73       -79.2077   25.5104  -69.5435 H         1 UNK         0.0837 
     74 H74       -77.4989   27.5591  -69.8875 H         1 UNK         0.0685 
     75 H75       -76.0117   27.1446  -70.6996 H         1 UNK         0.0685 
     76 H76       -79.2772   27.9390  -72.4343 H         1 UNK         0.1434 
     77 H77       -77.7265   31.5111  -74.2071 H         1 UNK         0.1329 
     78 H78       -75.3365   29.3074  -71.4188 H         1 UNK         0.1335 
     79 H79       -75.7237   32.5251  -73.1972 H         1 UNK         0.0680 
     80 H80       -74.7887   31.6529  -72.0058 H         1 UNK         0.0680 
     81 H81       -72.5286   32.6449  -75.0572 H         1 UNK         0.1032 
     82 H82       -73.2706   33.2425  -73.6100 H         1 UNK         0.1032 
     83 H83       -70.8409   32.6441  -73.3688 H         1 UNK         0.0461 
     84 H84       -72.0023   30.5911  -70.1056 H         1 UNK         0.3453 
     85 H85       -71.5981   29.7825  -71.5999 H         1 UNK         0.3453 
     86 H86       -71.6279   30.1254  -74.4767 H         1 UNK         0.2984 
     87 H87       -69.3513   28.9975  -75.3491 H         1 UNK         0.0554 
     88 H88       -67.8854   27.2877  -74.2850 H         1 UNK         0.0847 
     89 H89       -68.1415   28.0306  -72.7055 H         1 UNK         0.0847 
     90 H90       -67.2971   28.9099  -73.9722 H         1 UNK         0.0847 
     91 H91       -70.3904   27.1791  -73.3004 H         1 UNK         0.3141 
     92 H92       -72.1047   25.8736  -73.7854 H         1 UNK         0.0743 
     93 H93       -74.3620   27.9206  -74.1738 H         1 UNK         0.0784 
     94 H94       -74.4624   26.4390  -73.2278 H         1 UNK         0.0784 
     95 H95       -73.4082   27.7454  -72.7078 H         1 UNK         0.0784 
     96 H96       -74.1907   25.9426  -75.6631 H         1 UNK         0.3213 
     97 H97       -72.5702   24.4113  -78.4383 H         1 UNK         0.0855 
     98 H98       -74.5099   23.2531  -76.3637 H         1 UNK         0.0814 
     99 H99       -73.0152   22.5120  -76.9140 H         1 UNK         0.0814 
    100 H100      -74.3518   22.7133  -78.0350 H         1 UNK         0.0814 
    101 H101      -75.2215   25.3735  -77.5022 H         1 UNK         0.3105 
    102 H102      -75.2595   28.1430  -79.6102 H         1 UNK         0.0547 
    103 H103      -75.5523   26.4988  -81.4643 H         1 UNK         0.0837 
    104 H104      -76.5841   25.5057  -80.4440 H         1 UNK         0.0837 
    105 H105      -77.1019   27.1216  -80.9246 H         1 UNK         0.0837 
    106 H106      -77.2981   26.4929  -78.3228 H         1 UNK         0.3020 
    107 H107      -77.1152   28.1272  -75.1916 H         1 UNK         0.1245 
    108 H108      -79.1037   28.5516  -77.4940 H         1 UNK         0.0781 
    109 H109      -78.4293   29.7876  -76.4672 H         1 UNK         0.0781 
    110 H110      -80.7733   29.9130  -73.4846 H         1 UNK         0.0836 
    111 H111      -79.9589   30.8522  -74.7109 H         1 UNK         0.0836 
    112 H112      -78.9763   26.2578  -76.0092 H         1 UNK         0.3022 
    113 H113      -77.2568   23.3444  -76.4392 H         1 UNK         0.0747 
    114 H114      -78.0497   22.2701  -74.3659 H         1 UNK         0.0793 
    115 H115      -76.7056   23.3327  -73.9740 H         1 UNK         0.0793 
    116 H116      -78.3538   23.8407  -73.6280 H         1 UNK         0.0793 
    117 H117      -79.9038   23.5725  -75.4914 H         1 UNK         0.3047 
    118 H118      -81.4968   24.9780  -78.2685 H         1 UNK         0.0822 
    119 H119      -82.7772   22.8440  -78.3469 H         1 UNK         0.0807 
    120 H120      -81.4689   22.0092  -77.5101 H         1 UNK         0.0807 
    121 H121      -81.2054   22.6761  -79.1119 H         1 UNK         0.0807 
    122 H122      -82.5225   25.4069  -76.3844 H         1 UNK         0.2946 
    123 H123      -83.0694   25.5462  -74.2603 H         1 UNK         0.1144 
    124 H124      -84.2103   22.7459  -73.7055 H         1 UNK         0.0793 
    125 H125      -84.8618   23.9003  -74.8613 H         1 UNK         0.0793 
    126 H126      -84.9021   24.2681  -73.1443 H         1 UNK         0.0793 
    127 H127      -82.4716   23.5805  -72.1757 H         1 UNK         0.2896 
@<TRIPOS>BOND
     1    1    2 1    
     2    1   67 1    
     3    1   68 1    
     4    1   69 1    
     5    2    3 2    
     6    2    4 am   BACKBONE|DICT|INTERRES
     7    4    5 1    
     8    4   70 1    
     9    5    6 1    
    10    5   65 1    
    11    5   71 1    
    12    6    7 1    
    13    6   72 1    
    14    6   73 1    
    15    7    8 1    
    16    8    9 1    
    17    8   74 1    
    18    8   75 1    
    19    9   10 ar   
    20    9   14 ar   
    21   10   11 ar   
    22   10   76 1    
    23   11   12 ar   
    24   11   48 1    
    25   12   13 ar   
    26   12   77 1    
    27   13   14 ar   
    28   13   15 1    
    29   14   78 1    
    30   15   16 1    
    31   15   79 1    
    32   15   80 1    
    33   16   17 1    
    34   17   18 1    
    35   17   81 1    
    36   17   82 1    
    37   18   19 1    
    38   18   22 1    
    39   18   83 1    
    40   19   20 am   BACKBONE|DICT|INTERRES
    41   19   21 2    
    42   20   84 1    
    43   20   85 1    
    44   22   23 am   BACKBONE|DICT|INTERRES
    45   22   86 1    
    46   23   24 2    
    47   23   25 1    
    48   25   26 1    
    49   25   27 1    
    50   25   87 1    
    51   26   88 1    
    52   26   89 1    
    53   26   90 1    
    54   27   28 am   BACKBONE|DICT|INTERRES
    55   27   91 1    
    56   28   29 2    
    57   28   30 1    
    58   30   31 1    
    59   30   32 1    
    60   30   92 1    
    61   31   93 1    
    62   31   94 1    
    63   31   95 1    
    64   32   33 am   BACKBONE|DICT|INTERRES
    65   32   96 1    
    66   33   34 2    
    67   33   35 1    
    68   35   36 1    
    69   35   37 1    
    70   35   97 1    
    71   36   98 1    
    72   36   99 1    
    73   36  100 1    
    74   37   38 am   BACKBONE|DICT|INTERRES
    75   37  101 1    
    76   38   39 2    
    77   38   40 1    
    78   40   41 1    
    79   40   42 1    
    80   40  102 1    
    81   41  103 1    
    82   41  104 1    
    83   41  105 1    
    84   42   43 am   BACKBONE|DICT|INTERRES
    85   42  106 1    
    86   43   44 2    
    87   43   45 1    
    88   45   46 1    
    89   45   49 1    
    90   45  107 1    
    91   46   47 1    
    92   46  108 1    
    93   46  109 1    
    94   47   48 1    
    95   48  110 1    
    96   48  111 1    
    97   49   50 am   BACKBONE|DICT|INTERRES
    98   49  112 1    
    99   50   51 2    
   100   50   52 1    
   101   52   53 1    
   102   52   54 1    
   103   52  113 1    
   104   53  114 1    
   105   53  115 1    
   106   53  116 1    
   107   54   55 am   BACKBONE|DICT|INTERRES
   108   54  117 1    
   109   55   56 2    
   110   55   57 1    
   111   57   58 1    
   112   57   59 1    
   113   57  118 1    
   114   58  119 1    
   115   58  120 1    
   116   58  121 1    
   117   59   60 am   BACKBONE|DICT|INTERRES
   118   59  122 1    
   119   60   61 2    
   120   60   62 1    
   121   62   63 1    
   122   62   64 1    
   123   62  123 1    
   124   63  124 1    
   125   63  125 1    
   126   63  126 1    
   127   64   65 am   BACKBONE|DICT|INTERRES
   128   64  127 1    
   129   65   66 2    
@<TRIPOS>SUBSTRUCTURE
     1 UNK         1 GROUP             0       ****    0 ROOT    
