@<TRIPOS>MOLECULE
3R135
127   129    1
SMALL
USER_CHARGES


@<TRIPOS>ATOM
      1 CA        -85.0536   27.8962  -75.2782 C.3       0 UNK        -0.1998 
      2 C         -84.8506   27.5098  -73.8155 C.2       0 UNK         0.4909 
      3 O         -85.5291   26.6069  -73.3301 O.2       0 UNK        -0.5240 
      4 N         -83.9413   28.1546  -73.0706 N.am      1 UNK        -0.4739 
      5 CA        -83.0380   29.2354  -73.4934 C.3       1 UNK         0.0864 
      6 C6        -82.7266   30.2243  -72.3372 C.3       11 UNK        -0.0881 
      7 S7        -82.1998   29.4437  -70.7712 S.3       11 UNK        -0.2682 
      8 C8        -80.5607   30.1920  -70.4897 C.3       11 UNK         0.0289 
      9 C9        -79.4527   29.4397  -71.2122 C.ar      11 UNK        -0.0687 
     10 C10       -79.1859   28.1104  -70.8717 C.ar      11 UNK        -0.0823 
     11 C11       -78.1677   27.3972  -71.5083 C.ar      11 UNK        -0.0830 
     12 C12       -77.4077   28.0376  -72.4918 C.ar      11 UNK        -0.1021 
     13 C13       -77.6375   29.3743  -72.8218 C.ar      11 UNK        -0.0753 
     14 C14       -78.6701   30.0709  -72.1854 C.ar      11 UNK        -0.0933 
     15 C15       -76.7687   30.0521  -73.8723 C.3       11 UNK         0.0166 
     16 S16       -75.3672   30.9612  -73.1401 S.3       11 UNK        -0.2615 
     17 C17       -74.3498   29.6423  -72.3815 C.3       11 UNK        -0.0865 
     18 CA        -72.8543   29.7127  -72.7959 C.3       10 UNK         0.0862 
     19 C         -71.9484   28.8435  -71.8716 C.2       10 UNK         0.5551 
     20 N         -70.9999   28.0700  -72.3885 N.am      10 UNK        -0.7319 
     21 O         -72.0938   28.8840  -70.6523 O.2       10 UNK        -0.5018 
     22 N         -72.6760   29.4016  -74.2228 N.am      10 UNK        -0.4509 
     23 C         -71.8538   30.0518  -75.0533 C.2       10 UNK         0.4899 
     24 O         -71.2091   31.0525  -74.7336 O.2       10 UNK        -0.4839 
     25 CA        -71.7283   29.4808  -76.4803 C.3       9 UNK         0.0222 
     26 CB        -70.5750   30.1203  -77.2825 C.3       9 UNK        -0.1966 
     27 N         -71.6320   28.0151  -76.5329 N.am      9 UNK        -0.4218 
     28 C         -70.7107   27.2317  -75.9475 C.2       9 UNK         0.5020 
     29 O         -69.8351   27.6669  -75.1982 O.2       9 UNK        -0.5274 
     30 CA        -70.7628   25.7085  -76.2101 C.3       8 UNK         0.0270 
     31 CB        -70.7622   24.9243  -74.8861 C.3       8 UNK        -0.1976 
     32 N         -71.9123   25.2787  -77.0107 N.am      8 UNK        -0.4313 
     33 C         -72.0301   25.3923  -78.3410 C.2       8 UNK         0.5041 
     34 O         -71.1222   25.7705  -79.0811 O.2       8 UNK        -0.5577 
     35 CA        -73.4283   25.1171  -78.9286 C.3       7 UNK         0.0284 
     36 CB        -73.6012   23.6348  -79.2974 C.3       7 UNK        -0.1958 
     37 N         -74.4959   25.5439  -78.0136 N.am      7 UNK        -0.4454 
     38 C         -74.7206   26.8257  -77.6864 C.2       7 UNK         0.5089 
     39 O         -74.1405   27.7716  -78.2174 O.2       7 UNK        -0.5125 
     40 CA        -75.6805   27.1085  -76.5241 C.3       6 UNK         0.0408 
     41 CB        -77.1091   27.3417  -77.0316 C.3       6 UNK        -0.1791 
     42 N         -75.6579   26.0451  -75.5147 N.am      6 UNK        -0.4762 
     43 C         -74.7306   25.9568  -74.5478 C.2       6 UNK         0.5007 
     44 O         -73.8502   26.8011  -74.3886 O.2       6 UNK        -0.5032 
     45 CA        -74.7558   24.7210  -73.6185 C.3       5 UNK         0.0783 
     46 C46       -75.5024   25.0091  -72.2897 C.3       11 UNK        -0.0857 
     47 S47       -77.3237   24.8750  -72.4322 S.3       11 UNK        -0.2512 
     48 C48       -77.8955   25.9564  -71.0838 C.3       11 UNK         0.0225 
     49 N         -75.2785   23.5158  -74.2635 N.am      5 UNK        -0.4615 
     50 C         -74.7883   22.9154  -75.3518 C.2       4 UNK         0.5053 
     51 O         -73.7335   23.2469  -75.8904 O.2       4 UNK        -0.5105 
     52 CA        -75.6689   21.8156  -75.9822 C.3       4 UNK         0.0263 
     53 CB        -75.2153   20.4279  -75.5044 C.3       4 UNK        -0.1981 
     54 N         -77.1088   21.9825  -75.7127 N.am      4 UNK        -0.4224 
     55 C         -77.8266   23.0612  -76.0630 C.2       3 UNK         0.4895 
     56 O         -77.3454   23.9983  -76.7074 O.2       3 UNK        -0.5091 
     57 CA        -79.2792   23.1744  -75.5610 C.3       3 UNK         0.0250 
     58 CB        -79.5430   22.3873  -74.2557 C.3       3 UNK        -0.1996 
     59 N         -79.5274   24.6090  -75.4126 N.am      3 UNK        -0.4254 
     60 C         -80.6385   25.2583  -75.0521 C.2       2 UNK         0.5004 
     61 O         -81.6868   24.7230  -74.6832 O.2       2 UNK        -0.5226 
     62 CA        -80.5692   26.7840  -75.1985 C.3       2 UNK         0.0269 
     63 CB        -80.6908   27.1690  -76.6911 C.3       2 UNK        -0.1926 
     64 N         -81.6349   27.4170  -74.4238 N.am      2 UNK        -0.4687 
     65 C         -81.7667   28.7352  -74.2172 C.2       1 UNK         0.5165 
     66 O         -80.9513   29.5645  -74.6224 O.2       1 UNK        -0.5079 
     67 H67       -85.7548   27.2136  -75.7580 H         1 UNK         0.0900 
     68 H68       -85.4654   28.9019  -75.3574 H         1 UNK         0.0900 
     69 H69       -84.1200   27.8513  -75.8373 H         1 UNK         0.0900 
     70 H70       -83.8267   27.8789  -72.1047 H         1 UNK         0.2959 
     71 H71       -83.5576   29.8296  -74.2472 H         1 UNK         0.1079 
     72 H72       -81.9957   30.9726  -72.6495 H         1 UNK         0.0837 
     73 H73       -83.6302   30.7931  -72.1127 H         1 UNK         0.0837 
     74 H74       -80.5771   31.2456  -70.7726 H         1 UNK         0.0685 
     75 H75       -80.3512   30.1708  -69.4193 H         1 UNK         0.0685 
     76 H76       -79.7796   27.6318  -70.1044 H         1 UNK         0.1434 
     77 H77       -76.6235   27.5027  -73.0021 H         1 UNK         0.1329 
     78 H78       -78.8586   31.1033  -72.4457 H         1 UNK         0.1335 
     79 H79       -77.3755   30.7479  -74.4536 H         1 UNK         0.0680 
     80 H80       -76.3893   29.3184  -74.5807 H         1 UNK         0.0680 
     81 H81       -74.4629   29.7447  -71.3007 H         1 UNK         0.1032 
     82 H82       -74.7462   28.6604  -72.6306 H         1 UNK         0.1032 
     83 H83       -72.5271   30.7377  -72.6131 H         1 UNK         0.0461 
     84 H84       -70.4221   27.5255  -71.7689 H         1 UNK         0.3453 
     85 H85       -70.8203   28.0560  -73.3847 H         1 UNK         0.3453 
     86 H86       -73.1140   28.5366  -74.5292 H         1 UNK         0.2984 
     87 H87       -72.6591   29.7404  -76.9860 H         1 UNK         0.0554 
     88 H88       -70.7002   31.2012  -77.3568 H         1 UNK         0.0847 
     89 H89       -70.5357   29.7303  -78.2996 H         1 UNK         0.0847 
     90 H90       -69.6072   29.9359  -76.8147 H         1 UNK         0.0847 
     91 H91       -72.3312   27.5703  -77.1150 H         1 UNK         0.3141 
     92 H92       -69.8528   25.4490  -76.7549 H         1 UNK         0.0743 
     93 H93       -69.8471   25.1094  -74.3220 H         1 UNK         0.0784 
     94 H94       -71.5973   25.2126  -74.2487 H         1 UNK         0.0784 
     95 H95       -70.8236   23.8493  -75.0574 H         1 UNK         0.0784 
     96 H96       -72.6865   24.8604  -76.5040 H         1 UNK         0.3213 
     97 H97       -73.5212   25.7035  -79.8456 H         1 UNK         0.0855 
     98 H98       -73.4696   22.9777  -78.4387 H         1 UNK         0.0814 
     99 H99       -72.8650   23.3365  -80.0449 H         1 UNK         0.0814 
    100 H100      -74.5872   23.4424  -79.7205 H         1 UNK         0.0814 
    101 H101      -75.0153   24.8217  -77.5337 H         1 UNK         0.3105 
    102 H102      -75.3415   28.0372  -76.0634 H         1 UNK         0.0547 
    103 H103      -77.7736   27.6160  -76.2142 H         1 UNK         0.0837 
    104 H104      -77.1345   28.1607  -77.7517 H         1 UNK         0.0837 
    105 H105      -77.5152   26.4627  -77.5312 H         1 UNK         0.0837 
    106 H106      -76.3135   25.2816  -75.6426 H         1 UNK         0.3020 
    107 H107      -73.7128   24.5153  -73.3699 H         1 UNK         0.1245 
    108 H108      -75.2216   25.9823  -71.8820 H         1 UNK         0.0781 
    109 H109      -75.1869   24.2823  -71.5396 H         1 UNK         0.0781 
    110 H110      -77.1707   25.9502  -70.2687 H         1 UNK         0.0836 
    111 H111      -78.8095   25.5157  -70.6824 H         1 UNK         0.0836 
    112 H112      -76.1541   23.1812  -73.8885 H         1 UNK         0.3022 
    113 H113      -75.5271   21.8696  -77.0635 H         1 UNK         0.0747 
    114 H114      -75.7644   19.6341  -76.0112 H         1 UNK         0.0793 
    115 H115      -74.1561   20.2707  -75.7141 H         1 UNK         0.0793 
    116 H116      -75.3569   20.3033  -74.4301 H         1 UNK         0.0793 
    117 H117      -77.5599   21.2525  -75.1800 H         1 UNK         0.3047 
    118 H118      -79.9334   22.7962  -76.3483 H         1 UNK         0.0822 
    119 H119      -79.4203   21.3147  -74.4080 H         1 UNK         0.0807 
    120 H120      -80.5623   22.5267  -73.8978 H         1 UNK         0.0807 
    121 H121      -78.8711   22.6855  -73.4524 H         1 UNK         0.0807 
    122 H122      -78.7441   25.1532  -75.7512 H         1 UNK         0.2946 
    123 H123      -79.6119   27.1236  -74.7961 H         1 UNK         0.1144 
    124 H124      -80.4845   28.2264  -76.8552 H         1 UNK         0.0793 
    125 H125      -81.6896   26.9599  -77.0760 H         1 UNK         0.0793 
    126 H126      -79.9871   26.6130  -77.3110 H         1 UNK         0.0793 
    127 H127      -82.3203   26.7757  -74.0433 H         1 UNK         0.2896 
@<TRIPOS>BOND
     1    1    2 1    
     2    1   67 1    
     3    1   68 1    
     4    1   69 1    
     5    2    3 2    
     6    2    4 am   BACKBONE|DICT|INTERRES
     7    4    5 1    
     8    4   70 1    
     9    5    6 1    
    10    5   65 1    
    11    5   71 1    
    12    6    7 1    
    13    6   72 1    
    14    6   73 1    
    15    7    8 1    
    16    8    9 1    
    17    8   74 1    
    18    8   75 1    
    19    9   10 ar   
    20    9   14 ar   
    21   10   11 ar   
    22   10   76 1    
    23   11   12 ar   
    24   11   48 1    
    25   12   13 ar   
    26   12   77 1    
    27   13   14 ar   
    28   13   15 1    
    29   14   78 1    
    30   15   16 1    
    31   15   79 1    
    32   15   80 1    
    33   16   17 1    
    34   17   18 1    
    35   17   81 1    
    36   17   82 1    
    37   18   19 1    
    38   18   22 1    
    39   18   83 1    
    40   19   20 am   BACKBONE|DICT|INTERRES
    41   19   21 2    
    42   20   84 1    
    43   20   85 1    
    44   22   23 am   BACKBONE|DICT|INTERRES
    45   22   86 1    
    46   23   24 2    
    47   23   25 1    
    48   25   26 1    
    49   25   27 1    
    50   25   87 1    
    51   26   88 1    
    52   26   89 1    
    53   26   90 1    
    54   27   28 am   BACKBONE|DICT|INTERRES
    55   27   91 1    
    56   28   29 2    
    57   28   30 1    
    58   30   31 1    
    59   30   32 1    
    60   30   92 1    
    61   31   93 1    
    62   31   94 1    
    63   31   95 1    
    64   32   33 am   BACKBONE|DICT|INTERRES
    65   32   96 1    
    66   33   34 2    
    67   33   35 1    
    68   35   36 1    
    69   35   37 1    
    70   35   97 1    
    71   36   98 1    
    72   36   99 1    
    73   36  100 1    
    74   37   38 am   BACKBONE|DICT|INTERRES
    75   37  101 1    
    76   38   39 2    
    77   38   40 1    
    78   40   41 1    
    79   40   42 1    
    80   40  102 1    
    81   41  103 1    
    82   41  104 1    
    83   41  105 1    
    84   42   43 am   BACKBONE|DICT|INTERRES
    85   42  106 1    
    86   43   44 2    
    87   43   45 1    
    88   45   46 1    
    89   45   49 1    
    90   45  107 1    
    91   46   47 1    
    92   46  108 1    
    93   46  109 1    
    94   47   48 1    
    95   48  110 1    
    96   48  111 1    
    97   49   50 am   BACKBONE|DICT|INTERRES
    98   49  112 1    
    99   50   51 2    
   100   50   52 1    
   101   52   53 1    
   102   52   54 1    
   103   52  113 1    
   104   53  114 1    
   105   53  115 1    
   106   53  116 1    
   107   54   55 am   BACKBONE|DICT|INTERRES
   108   54  117 1    
   109   55   56 2    
   110   55   57 1    
   111   57   58 1    
   112   57   59 1    
   113   57  118 1    
   114   58  119 1    
   115   58  120 1    
   116   58  121 1    
   117   59   60 am   BACKBONE|DICT|INTERRES
   118   59  122 1    
   119   60   61 2    
   120   60   62 1    
   121   62   63 1    
   122   62   64 1    
   123   62  123 1    
   124   63  124 1    
   125   63  125 1    
   126   63  126 1    
   127   64   65 am   BACKBONE|DICT|INTERRES
   128   64  127 1    
   129   65   66 2    
@<TRIPOS>SUBSTRUCTURE
     1 UNK         1 GROUP             0       ****    0 ROOT    
