@<TRIPOS>MOLECULE
3R135
127   129    1
SMALL
USER_CHARGES


@<TRIPOS>ATOM
      1 CA        -84.6843   24.4633  -70.4201 C.3       0 UNK        -0.1998 
      2 C         -83.4986   24.6737  -71.3494 C.2       0 UNK         0.4909 
      3 O         -83.0147   23.7096  -71.9446 O.2       0 UNK        -0.5240 
      4 N         -83.0369   25.9265  -71.4781 N.am      1 UNK        -0.4739 
      5 CA        -81.9156   26.4037  -72.3042 C.3       1 UNK         0.0864 
      6 C6        -80.5496   25.7488  -71.9588 C.3       11 UNK        -0.0881 
      7 S7        -79.9118   26.3191  -70.3467 S.3       11 UNK        -0.2682 
      8 C8        -78.1352   26.5628  -70.7035 C.3       11 UNK         0.0289 
      9 C9        -77.7685   27.9232  -71.3005 C.ar      11 UNK        -0.0687 
     10 C10       -78.5940   28.5814  -72.2197 C.ar      11 UNK        -0.0823 
     11 C11       -78.2038   29.7900  -72.8000 C.ar      11 UNK        -0.0830 
     12 C12       -76.9802   30.3616  -72.4432 C.ar      11 UNK        -0.1021 
     13 C13       -76.1475   29.7259  -71.5186 C.ar      11 UNK        -0.0753 
     14 C14       -76.5454   28.5091  -70.9551 C.ar      11 UNK        -0.0933 
     15 C15       -74.8148   30.3478  -71.1332 C.3       11 UNK         0.0166 
     16 S16       -73.4476   29.5642  -72.0378 S.3       11 UNK        -0.2615 
     17 C17       -72.0123   30.4975  -71.4063 C.3       11 UNK        -0.0865 
     18 CA        -71.1120   31.0444  -72.5455 C.3       10 UNK         0.0862 
     19 C         -70.0121   31.9852  -71.9689 C.2       10 UNK         0.5551 
     20 N         -68.7315   31.6444  -72.0502 N.am      10 UNK        -0.7319 
     21 O         -70.3311   33.0468  -71.4391 O.2       10 UNK        -0.5018 
     22 N         -70.6129   29.9564  -73.4060 N.am      10 UNK        -0.4509 
     23 C         -70.0866   30.1148  -74.6278 C.2       10 UNK         0.4899 
     24 O         -69.9663   31.2047  -75.1880 O.2       10 UNK        -0.4839 
     25 CA        -69.5974   28.8452  -75.3486 C.3       9 UNK         0.0222 
     26 CB        -68.0876   28.6548  -75.1274 C.3       9 UNK        -0.1966 
     27 N         -70.3049   27.6289  -74.9333 N.am      9 UNK        -0.4218 
     28 C         -71.5469   27.3081  -75.3201 C.2       9 UNK         0.5020 
     29 O         -72.2327   28.0022  -76.0735 O.2       9 UNK        -0.5274 
     30 CA        -72.1208   26.0047  -74.7399 C.3       8 UNK         0.0270 
     31 CB        -72.9005   26.2841  -73.4460 C.3       8 UNK        -0.1976 
     32 N         -72.9981   25.3277  -75.6973 N.am      8 UNK        -0.4313 
     33 C         -72.5536   24.6309  -76.7524 C.2       8 UNK         0.5041 
     34 O         -71.3588   24.4620  -77.0036 O.2       8 UNK        -0.5577 
     35 CA        -73.6045   23.9896  -77.6742 C.3       7 UNK         0.0284 
     36 CB        -74.1082   22.6649  -77.0801 C.3       7 UNK        -0.1958 
     37 N         -74.7406   24.8659  -77.9658 N.am      7 UNK        -0.4454 
     38 C         -74.6752   25.9511  -78.7509 C.2       7 UNK         0.5089 
     39 O         -73.6450   26.3404  -79.3018 O.2       7 UNK        -0.5125 
     40 CA        -75.9857   26.7200  -78.9854 C.3       6 UNK         0.0408 
     41 CB        -76.7917   26.0860  -80.1307 C.3       6 UNK        -0.1791 
     42 N         -76.8101   26.7766  -77.7785 N.am      6 UNK        -0.4762 
     43 C         -76.6171   27.6469  -76.7761 C.2       6 UNK         0.5007 
     44 O         -75.7600   28.5300  -76.7984 O.2       6 UNK        -0.5032 
     45 CA        -77.5257   27.4951  -75.5359 C.3       5 UNK         0.0783 
     46 C46       -78.8257   28.3299  -75.6786 C.3       11 UNK        -0.0857 
     47 S47       -78.5516   30.1300  -75.5263 S.3       11 UNK        -0.2512 
     48 C48       -79.1016   30.4678  -73.8238 C.3       11 UNK         0.0225 
     49 N         -77.8275   26.0866  -75.2511 N.am      5 UNK        -0.4615 
     50 C         -76.9162   25.1784  -74.8667 C.2       4 UNK         0.5053 
     51 O         -75.7341   25.4464  -74.6634 O.2       4 UNK        -0.5105 
     52 CA        -77.3681   23.7103  -74.7434 C.3       4 UNK         0.0263 
     53 CB        -77.7370   23.3660  -73.2934 C.3       4 UNK        -0.1981 
     54 N         -78.4745   23.3549  -75.6341 N.am      4 UNK        -0.4224 
     55 C         -78.4260   23.4212  -76.9723 C.2       3 UNK         0.4895 
     56 O         -77.4113   23.7244  -77.6007 O.2       3 UNK        -0.5091 
     57 CA        -79.7372   23.1686  -77.7389 C.3       3 UNK         0.0250 
     58 CB        -79.7979   21.7117  -78.2234 C.3       3 UNK        -0.1996 
     59 N         -80.9641   23.4864  -76.9924 N.am      3 UNK        -0.4254 
     60 C         -81.2638   24.6748  -76.4446 C.2       2 UNK         0.5004 
     61 O         -80.4885   25.6320  -76.4553 O.2       2 UNK        -0.5226 
     62 CA        -82.6339   24.8200  -75.7515 C.3       2 UNK         0.0269 
     63 CB        -83.5437   23.5804  -75.8785 C.3       2 UNK        -0.1926 
     64 N         -82.4533   25.1251  -74.3323 N.am      2 UNK        -0.4687 
     65 C         -82.2096   26.3354  -73.8164 C.2       1 UNK         0.5165 
     66 O         -82.2145   27.3764  -74.4740 O.2       1 UNK        -0.5079 
     67 H67       -85.0123   25.3942  -69.9581 H         1 UNK         0.0900 
     68 H68       -85.5243   24.0445  -70.9735 H         1 UNK         0.0900 
     69 H69       -84.4178   23.7664  -69.6259 H         1 UNK         0.0900 
     70 H70       -83.5083   26.6584  -70.9643 H         1 UNK         0.2959 
     71 H71       -81.8325   27.4686  -72.0793 H         1 UNK         0.1079 
     72 H72       -80.6264   24.6618  -71.9325 H         1 UNK         0.0837 
     73 H73       -79.8091   25.9666  -72.7302 H         1 UNK         0.0837 
     74 H74       -77.5989   26.4241  -69.7634 H         1 UNK         0.0685 
     75 H75       -77.7819   25.7755  -71.3700 H         1 UNK         0.0685 
     76 H76       -79.5416   28.1577  -72.5061 H         1 UNK         0.1434 
     77 H77       -76.6723   31.2949  -72.8948 H         1 UNK         0.1329 
     78 H78       -75.8884   28.0114  -70.2546 H         1 UNK         0.1335 
     79 H79       -74.6521   30.2369  -70.0599 H         1 UNK         0.0680 
     80 H80       -74.8201   31.4193  -71.3399 H         1 UNK         0.0680 
     81 H81       -71.4390   29.8449  -70.7452 H         1 UNK         0.1032 
     82 H82       -72.3702   31.3173  -70.7800 H         1 UNK         0.1032 
     83 H83       -71.7382   31.6799  -73.1750 H         1 UNK         0.0461 
     84 H84       -68.0298   32.2635  -71.6758 H         1 UNK         0.3453 
     85 H85       -68.4614   30.7775  -72.4853 H         1 UNK         0.3453 
     86 H86       -70.6871   29.0245  -73.0285 H         1 UNK         0.2984 
     87 H87       -69.7643   28.9908  -76.4182 H         1 UNK         0.0554 
     88 H88       -67.5320   29.5374  -75.4482 H         1 UNK         0.0847 
     89 H89       -67.7058   27.8102  -75.7014 H         1 UNK         0.0847 
     90 H90       -67.8480   28.4835  -74.0773 H         1 UNK         0.0847 
     91 H91       -69.8084   27.0006  -74.3171 H         1 UNK         0.3141 
     92 H92       -71.2946   25.3318  -74.4994 H         1 UNK         0.0743 
     93 H93       -73.7318   26.9690  -73.6203 H         1 UNK         0.0784 
     94 H94       -73.3090   25.3671  -73.0209 H         1 UNK         0.0784 
     95 H95       -72.2586   26.7351  -72.6886 H         1 UNK         0.0784 
     96 H96       -73.9982   25.4318  -75.5457 H         1 UNK         0.3213 
     97 H97       -73.1142   23.7620  -78.6235 H         1 UNK         0.0855 
     98 H98       -74.5429   22.8072  -76.0919 H         1 UNK         0.0814 
     99 H99       -73.2885   21.9536  -76.9719 H         1 UNK         0.0814 
    100 H100      -74.8607   22.1996  -77.7174 H         1 UNK         0.0814 
    101 H101      -75.6514   24.5736  -77.6237 H         1 UNK         0.3105 
    102 H102      -75.7280   27.7382  -79.2852 H         1 UNK         0.0547 
    103 H103      -77.7003   26.6516  -80.3369 H         1 UNK         0.0837 
    104 H104      -77.0794   25.0580  -79.9086 H         1 UNK         0.0837 
    105 H105      -76.2071   26.0668  -81.0515 H         1 UNK         0.0837 
    106 H106      -77.5050   26.0504  -77.6656 H         1 UNK         0.3020 
    107 H107      -76.9623   27.8769  -74.6805 H         1 UNK         0.1245 
    108 H108      -79.5528   28.0263  -74.9253 H         1 UNK         0.0781 
    109 H109      -79.3104   28.1327  -76.6367 H         1 UNK         0.0781 
    110 H110      -80.1388   30.1493  -73.7058 H         1 UNK         0.0836 
    111 H111      -79.0950   31.5461  -73.6578 H         1 UNK         0.0836 
    112 H112      -78.7706   25.7836  -75.4764 H         1 UNK         0.3022 
    113 H113      -76.5179   23.0874  -75.0218 H         1 UNK         0.0747 
    114 H114      -77.9186   22.2977  -73.1746 H         1 UNK         0.0793 
    115 H115      -76.9292   23.6328  -72.6103 H         1 UNK         0.0793 
    116 H116      -78.6302   23.8942  -72.9675 H         1 UNK         0.0793 
    117 H117      -79.3489   23.0961  -75.2015 H         1 UNK         0.3047 
    118 H118      -79.7184   23.8187  -78.6162 H         1 UNK         0.0822 
    119 H119      -80.6600   21.5425  -78.8689 H         1 UNK         0.0807 
    120 H120      -79.8579   21.0106  -77.3899 H         1 UNK         0.0807 
    121 H121      -78.9089   21.4549  -78.8017 H         1 UNK         0.0807 
    122 H122      -81.6523   22.7500  -76.9287 H         1 UNK         0.2946 
    123 H123      -83.1397   25.6589  -76.2352 H         1 UNK         0.1144 
    124 H124      -83.1161   22.7028  -75.3916 H         1 UNK         0.0793 
    125 H125      -83.7343   23.3307  -76.9233 H         1 UNK         0.0793 
    126 H126      -84.5149   23.7652  -75.4185 H         1 UNK         0.0793 
    127 H127      -82.4921   24.3472  -73.6788 H         1 UNK         0.2896 
@<TRIPOS>BOND
     1    1    2 1    
     2    1   67 1    
     3    1   68 1    
     4    1   69 1    
     5    2    3 2    
     6    2    4 am   BACKBONE|DICT|INTERRES
     7    4    5 1    
     8    4   70 1    
     9    5    6 1    
    10    5   65 1    
    11    5   71 1    
    12    6    7 1    
    13    6   72 1    
    14    6   73 1    
    15    7    8 1    
    16    8    9 1    
    17    8   74 1    
    18    8   75 1    
    19    9   10 ar   
    20    9   14 ar   
    21   10   11 ar   
    22   10   76 1    
    23   11   12 ar   
    24   11   48 1    
    25   12   13 ar   
    26   12   77 1    
    27   13   14 ar   
    28   13   15 1    
    29   14   78 1    
    30   15   16 1    
    31   15   79 1    
    32   15   80 1    
    33   16   17 1    
    34   17   18 1    
    35   17   81 1    
    36   17   82 1    
    37   18   19 1    
    38   18   22 1    
    39   18   83 1    
    40   19   20 am   BACKBONE|DICT|INTERRES
    41   19   21 2    
    42   20   84 1    
    43   20   85 1    
    44   22   23 am   BACKBONE|DICT|INTERRES
    45   22   86 1    
    46   23   24 2    
    47   23   25 1    
    48   25   26 1    
    49   25   27 1    
    50   25   87 1    
    51   26   88 1    
    52   26   89 1    
    53   26   90 1    
    54   27   28 am   BACKBONE|DICT|INTERRES
    55   27   91 1    
    56   28   29 2    
    57   28   30 1    
    58   30   31 1    
    59   30   32 1    
    60   30   92 1    
    61   31   93 1    
    62   31   94 1    
    63   31   95 1    
    64   32   33 am   BACKBONE|DICT|INTERRES
    65   32   96 1    
    66   33   34 2    
    67   33   35 1    
    68   35   36 1    
    69   35   37 1    
    70   35   97 1    
    71   36   98 1    
    72   36   99 1    
    73   36  100 1    
    74   37   38 am   BACKBONE|DICT|INTERRES
    75   37  101 1    
    76   38   39 2    
    77   38   40 1    
    78   40   41 1    
    79   40   42 1    
    80   40  102 1    
    81   41  103 1    
    82   41  104 1    
    83   41  105 1    
    84   42   43 am   BACKBONE|DICT|INTERRES
    85   42  106 1    
    86   43   44 2    
    87   43   45 1    
    88   45   46 1    
    89   45   49 1    
    90   45  107 1    
    91   46   47 1    
    92   46  108 1    
    93   46  109 1    
    94   47   48 1    
    95   48  110 1    
    96   48  111 1    
    97   49   50 am   BACKBONE|DICT|INTERRES
    98   49  112 1    
    99   50   51 2    
   100   50   52 1    
   101   52   53 1    
   102   52   54 1    
   103   52  113 1    
   104   53  114 1    
   105   53  115 1    
   106   53  116 1    
   107   54   55 am   BACKBONE|DICT|INTERRES
   108   54  117 1    
   109   55   56 2    
   110   55   57 1    
   111   57   58 1    
   112   57   59 1    
   113   57  118 1    
   114   58  119 1    
   115   58  120 1    
   116   58  121 1    
   117   59   60 am   BACKBONE|DICT|INTERRES
   118   59  122 1    
   119   60   61 2    
   120   60   62 1    
   121   62   63 1    
   122   62   64 1    
   123   62  123 1    
   124   63  124 1    
   125   63  125 1    
   126   63  126 1    
   127   64   65 am   BACKBONE|DICT|INTERRES
   128   64  127 1    
   129   65   66 2    
@<TRIPOS>SUBSTRUCTURE
     1 UNK         1 GROUP             0       ****    0 ROOT    
