@<TRIPOS>MOLECULE
3R135
127   129    1
SMALL
USER_CHARGES


@<TRIPOS>ATOM
      1 CA        -82.8872   27.4377  -71.8100 C.3       0 UNK        -0.1998 
      2 C         -83.0498   27.9733  -73.2246 C.2       0 UNK         0.4909 
      3 O         -84.1430   27.9031  -73.7864 O.2       0 UNK        -0.5240 
      4 N         -81.9666   28.5039  -73.8064 N.am      1 UNK        -0.4739 
      5 CA        -81.9149   29.0288  -75.1784 C.3       1 UNK         0.0864 
      6 C6        -80.7779   30.0725  -75.3435 C.3       11 UNK        -0.0881 
      7 S7        -79.1034   29.4007  -75.0615 S.3       11 UNK        -0.2682 
      8 C8        -78.7787   29.8744  -73.3393 C.3       11 UNK         0.0289 
      9 C9        -77.7720   28.9292  -72.7029 C.ar      11 UNK        -0.0687 
     10 C10       -78.2033   27.7354  -72.1159 C.ar      11 UNK        -0.0823 
     11 C11       -77.2909   26.8774  -71.4950 C.ar      11 UNK        -0.0830 
     12 C12       -75.9366   27.2235  -71.4595 C.ar      11 UNK        -0.1021 
     13 C13       -75.4911   28.4073  -72.0554 C.ar      11 UNK        -0.0753 
     14 C14       -76.4122   29.2514  -72.6845 C.ar      11 UNK        -0.0933 
     15 C15       -74.0169   28.7788  -72.0197 C.3       11 UNK         0.0166 
     16 S16       -73.7428   30.2776  -71.0242 S.3       11 UNK        -0.2615 
     17 C17       -71.9446   30.5217  -71.1999 C.3       11 UNK        -0.0865 
     18 CA        -71.5909   31.5240  -72.3303 C.3       10 UNK         0.0862 
     19 C         -70.1318   32.0218  -72.1846 C.2       10 UNK         0.5551 
     20 N         -69.9343   33.2267  -71.6683 N.am      10 UNK        -0.7319 
     21 O         -69.1780   31.3119  -72.4982 O.2       10 UNK        -0.5018 
     22 N         -71.7588   30.9090  -73.6497 N.am      10 UNK        -0.4509 
     23 C         -72.6583   31.2357  -74.5800 C.2       10 UNK         0.4899 
     24 O         -73.5049   32.1177  -74.4358 O.2       10 UNK        -0.4839 
     25 CA        -72.6302   30.4407  -75.9014 C.3       9 UNK         0.0222 
     26 CB        -71.6707   31.0935  -76.9151 C.3       9 UNK        -0.1966 
     27 N         -72.3698   28.9966  -75.7698 N.am      9 UNK        -0.4218 
     28 C         -71.2581   28.3685  -75.3487 C.2       9 UNK         0.5020 
     29 O         -70.2418   28.9552  -74.9759 O.2       9 UNK        -0.5274 
     30 CA        -71.2721   26.8290  -75.3011 C.3       8 UNK         0.0270 
     31 CB        -71.3934   26.3382  -73.8491 C.3       8 UNK        -0.1976 
     32 N         -72.3404   26.2345  -76.1073 N.am      8 UNK        -0.4313 
     33 C         -72.3139   26.1584  -77.4471 C.2       8 UNK         0.5041 
     34 O         -71.3457   26.5025  -78.1264 O.2       8 UNK        -0.5577 
     35 CA        -73.5717   25.6327  -78.1654 C.3       7 UNK         0.0284 
     36 CB        -73.3593   24.1812  -78.6235 C.3       7 UNK        -0.1958 
     37 N         -74.7990   25.7141  -77.3681 N.am      7 UNK        -0.4454 
     38 C         -75.3573   26.8527  -76.9265 C.2       7 UNK         0.5089 
     39 O         -74.8984   27.9713  -77.1594 O.2       7 UNK        -0.5125 
     40 CA        -76.6088   26.7247  -76.0383 C.3       6 UNK         0.0408 
     41 CB        -77.8615   26.7637  -76.9256 C.3       6 UNK        -0.1791 
     42 N         -76.6533   25.5151  -75.2098 N.am      6 UNK        -0.4762 
     43 C         -75.6737   25.0573  -74.4130 C.2       6 UNK         0.5007 
     44 O         -74.6094   25.6486  -74.2260 O.2       6 UNK        -0.5032 
     45 CA        -75.8611   23.6498  -73.8092 C.3       5 UNK         0.0783 
     46 C46       -76.2880   23.6896  -72.3212 C.3       11 UNK        -0.0857 
     47 S47       -78.0063   24.2456  -72.0392 S.3       11 UNK        -0.2512 
     48 C48       -77.7802   25.5949  -70.8371 C.3       11 UNK         0.0225 
     49 N         -76.7214   22.7735  -74.6149 N.am      5 UNK        -0.4615 
     50 C         -76.5038   22.4058  -75.8844 C.2       4 UNK         0.5053 
     51 O         -75.5328   22.7860  -76.5387 O.2       4 UNK        -0.5105 
     52 CA        -77.5433   21.4949  -76.5661 C.3       4 UNK         0.0263 
     53 CB        -77.1717   20.0092  -76.3935 C.3       4 UNK        -0.1981 
     54 N         -78.9419   21.7539  -76.1877 N.am      4 UNK        -0.4224 
     55 C         -79.5436   21.5759  -75.0017 C.2       3 UNK         0.4895 
     56 O         -78.9767   21.1094  -74.0123 O.2       3 UNK        -0.5091 
     57 CA        -81.0193   22.0152  -74.9022 C.3       3 UNK         0.0250 
     58 CB        -81.4484   22.3007  -73.4463 C.3       3 UNK        -0.1996 
     59 N         -81.3781   23.1522  -75.7658 N.am      3 UNK        -0.4254 
     60 C         -80.8391   24.3820  -75.7569 C.2       2 UNK         0.5004 
     61 O         -79.8594   24.6958  -75.0786 O.2       2 UNK        -0.5226 
     62 CA        -81.5087   25.4557  -76.6326 C.3       2 UNK         0.0269 
     63 CB        -82.9001   25.0521  -77.1762 C.3       2 UNK        -0.1926 
     64 N         -81.6006   26.6696  -75.8261 N.am      2 UNK        -0.4687 
     65 C         -81.8590   27.9128  -76.2514 C.2       1 UNK         0.5165 
     66 O         -82.0572   28.2003  -77.4330 O.2       1 UNK        -0.5079 
     67 H67       -83.5884   27.9330  -71.1388 H         1 UNK         0.0900 
     68 H68       -83.0929   26.3678  -71.7886 H         1 UNK         0.0900 
     69 H69       -81.8804   27.5975  -71.4247 H         1 UNK         0.0900 
     70 H70       -81.0912   28.5294  -73.3060 H         1 UNK         0.2959 
     71 H71       -82.8542   29.5565  -75.3603 H         1 UNK         0.1079 
     72 H72       -80.9459   30.9143  -74.6698 H         1 UNK         0.0837 
     73 H73       -80.8047   30.4994  -76.3479 H         1 UNK         0.0837 
     74 H74       -79.7028   29.8664  -72.7605 H         1 UNK         0.0685 
     75 H75       -78.4117   30.9016  -73.3135 H         1 UNK         0.0685 
     76 H76       -79.2509   27.4711  -72.1379 H         1 UNK         0.1434 
     77 H77       -75.2273   26.5700  -70.9712 H         1 UNK         0.1329 
     78 H78       -76.0690   30.1693  -73.1426 H         1 UNK         0.1335 
     79 H79       -73.4220   27.9632  -71.6064 H         1 UNK         0.0680 
     80 H80       -73.6673   28.9352  -73.0396 H         1 UNK         0.0680 
     81 H81       -71.4455   29.5627  -71.3534 H         1 UNK         0.1032 
     82 H82       -71.5868   30.8921  -70.2369 H         1 UNK         0.1032 
     83 H83       -72.2475   32.3923  -72.2427 H         1 UNK         0.0461 
     84 H84       -70.7098   33.8113  -71.3964 H         1 UNK         0.3453 
     85 H85       -68.9904   33.5617  -71.5522 H         1 UNK         0.3453 
     86 H86       -71.0468   30.2283  -73.9081 H         1 UNK         0.2984 
     87 H87       -73.6359   30.5076  -76.3198 H         1 UNK         0.0554 
     88 H88       -71.9393   32.1364  -77.0882 H         1 UNK         0.0847 
     89 H89       -71.7074   30.5853  -77.8788 H         1 UNK         0.0847 
     90 H90       -70.6372   31.0800  -76.5677 H         1 UNK         0.0847 
     91 H91       -73.1483   28.4139  -76.0596 H         1 UNK         0.3141 
     92 H92       -70.3128   26.4836  -75.6926 H         1 UNK         0.0743 
     93 H93       -70.5717   26.7157  -73.2390 H         1 UNK         0.0784 
     94 H94       -72.3213   26.6728  -73.3862 H         1 UNK         0.0784 
     95 H95       -71.3651   25.2499  -73.7933 H         1 UNK         0.0784 
     96 H96       -73.1757   25.9398  -75.6079 H         1 UNK         0.3213 
     97 H97       -73.7176   26.2531  -79.0522 H         1 UNK         0.0855 
     98 H98       -73.1938   23.5127  -77.7776 H         1 UNK         0.0814 
     99 H99       -72.4891   24.1010  -79.2765 H         1 UNK         0.0814 
    100 H100      -74.2184   23.8089  -79.1820 H         1 UNK         0.0814 
    101 H101      -75.2168   24.8314  -77.0923 H         1 UNK         0.3105 
    102 H102      -76.6261   27.5810  -75.3618 H         1 UNK         0.0547 
    103 H103      -77.9139   25.9037  -77.5941 H         1 UNK         0.0837 
    104 H104      -77.8779   27.6633  -77.5426 H         1 UNK         0.0837 
    105 H105      -78.7671   26.7751  -76.3225 H         1 UNK         0.0837 
    106 H106      -77.5115   24.9778  -75.2459 H         1 UNK         0.3020 
    107 H107      -74.8681   23.1955  -73.8384 H         1 UNK         0.1245 
    108 H108      -75.5941   24.3053  -71.7473 H         1 UNK         0.0781 
    109 H109      -76.1995   22.6884  -71.8969 H         1 UNK         0.0781 
    110 H110      -77.0965   25.2766  -70.0486 H         1 UNK         0.0836 
    111 H111      -78.7354   25.7840  -70.3451 H         1 UNK         0.0836 
    112 H112      -77.5465   22.4025  -74.1525 H         1 UNK         0.3022 
    113 H113      -77.4883   21.7189  -77.6327 H         1 UNK         0.0747 
    114 H114      -77.8651   19.3618  -76.9300 H         1 UNK         0.0793 
    115 H115      -76.1736   19.8117  -76.7869 H         1 UNK         0.0793 
    116 H116      -77.1701   19.7056  -75.3463 H         1 UNK         0.0793 
    117 H117      -79.5052   22.1708  -76.9156 H         1 UNK         0.3047 
    118 H118      -81.6052   21.1655  -75.2561 H         1 UNK         0.0822 
    119 H119      -82.4996   22.5825  -73.3891 H         1 UNK         0.0807 
    120 H120      -80.8605   23.1067  -73.0050 H         1 UNK         0.0807 
    121 H121      -81.3167   21.4203  -72.8160 H         1 UNK         0.0807 
    122 H122      -82.1714   22.9984  -76.3732 H         1 UNK         0.2946 
    123 H123      -80.8406   25.6485  -77.4745 H         1 UNK         0.1144 
    124 H124      -83.3368   25.8450  -77.7832 H         1 UNK         0.0793 
    125 H125      -83.6021   24.8349  -76.3699 H         1 UNK         0.0793 
    126 H126      -82.8396   24.1731  -77.8191 H         1 UNK         0.0793 
    127 H127      -81.3804   26.5393  -74.8477 H         1 UNK         0.2896 
@<TRIPOS>BOND
     1    1    2 1    
     2    1   67 1    
     3    1   68 1    
     4    1   69 1    
     5    2    3 2    
     6    2    4 am   BACKBONE|DICT|INTERRES
     7    4    5 1    
     8    4   70 1    
     9    5    6 1    
    10    5   65 1    
    11    5   71 1    
    12    6    7 1    
    13    6   72 1    
    14    6   73 1    
    15    7    8 1    
    16    8    9 1    
    17    8   74 1    
    18    8   75 1    
    19    9   10 ar   
    20    9   14 ar   
    21   10   11 ar   
    22   10   76 1    
    23   11   12 ar   
    24   11   48 1    
    25   12   13 ar   
    26   12   77 1    
    27   13   14 ar   
    28   13   15 1    
    29   14   78 1    
    30   15   16 1    
    31   15   79 1    
    32   15   80 1    
    33   16   17 1    
    34   17   18 1    
    35   17   81 1    
    36   17   82 1    
    37   18   19 1    
    38   18   22 1    
    39   18   83 1    
    40   19   20 am   BACKBONE|DICT|INTERRES
    41   19   21 2    
    42   20   84 1    
    43   20   85 1    
    44   22   23 am   BACKBONE|DICT|INTERRES
    45   22   86 1    
    46   23   24 2    
    47   23   25 1    
    48   25   26 1    
    49   25   27 1    
    50   25   87 1    
    51   26   88 1    
    52   26   89 1    
    53   26   90 1    
    54   27   28 am   BACKBONE|DICT|INTERRES
    55   27   91 1    
    56   28   29 2    
    57   28   30 1    
    58   30   31 1    
    59   30   32 1    
    60   30   92 1    
    61   31   93 1    
    62   31   94 1    
    63   31   95 1    
    64   32   33 am   BACKBONE|DICT|INTERRES
    65   32   96 1    
    66   33   34 2    
    67   33   35 1    
    68   35   36 1    
    69   35   37 1    
    70   35   97 1    
    71   36   98 1    
    72   36   99 1    
    73   36  100 1    
    74   37   38 am   BACKBONE|DICT|INTERRES
    75   37  101 1    
    76   38   39 2    
    77   38   40 1    
    78   40   41 1    
    79   40   42 1    
    80   40  102 1    
    81   41  103 1    
    82   41  104 1    
    83   41  105 1    
    84   42   43 am   BACKBONE|DICT|INTERRES
    85   42  106 1    
    86   43   44 2    
    87   43   45 1    
    88   45   46 1    
    89   45   49 1    
    90   45  107 1    
    91   46   47 1    
    92   46  108 1    
    93   46  109 1    
    94   47   48 1    
    95   48  110 1    
    96   48  111 1    
    97   49   50 am   BACKBONE|DICT|INTERRES
    98   49  112 1    
    99   50   51 2    
   100   50   52 1    
   101   52   53 1    
   102   52   54 1    
   103   52  113 1    
   104   53  114 1    
   105   53  115 1    
   106   53  116 1    
   107   54   55 am   BACKBONE|DICT|INTERRES
   108   54  117 1    
   109   55   56 2    
   110   55   57 1    
   111   57   58 1    
   112   57   59 1    
   113   57  118 1    
   114   58  119 1    
   115   58  120 1    
   116   58  121 1    
   117   59   60 am   BACKBONE|DICT|INTERRES
   118   59  122 1    
   119   60   61 2    
   120   60   62 1    
   121   62   63 1    
   122   62   64 1    
   123   62  123 1    
   124   63  124 1    
   125   63  125 1    
   126   63  126 1    
   127   64   65 am   BACKBONE|DICT|INTERRES
   128   64  127 1    
   129   65   66 2    
@<TRIPOS>SUBSTRUCTURE
     1 UNK         1 GROUP             0       ****    0 ROOT    
