@<TRIPOS>MOLECULE
3R135
127   129    1
SMALL
USER_CHARGES


@<TRIPOS>ATOM
      1 CA        -80.8744   32.5297  -76.3729 C.3       0 UNK        -0.1998 
      2 C         -79.6348   31.7235  -76.0141 C.2       0 UNK         0.4909 
      3 O         -78.5325   32.2702  -76.0059 O.2       0 UNK        -0.5240 
      4 N         -79.8101   30.4319  -75.7217 N.am      1 UNK        -0.4739 
      5 CA        -78.7458   29.4955  -75.3617 C.3       1 UNK         0.0864 
      6 C6        -78.3620   29.5722  -73.8536 C.3       11 UNK        -0.0881 
      7 S7        -79.7294   29.2455  -72.6826 S.3       11 UNK        -0.2682 
      8 C8        -78.9251   29.5482  -71.0795 C.3       11 UNK         0.0289 
      9 C9        -77.7927   28.5715  -70.7833 C.ar      11 UNK        -0.0687 
     10 C10       -78.0583   27.2161  -70.5560 C.ar      11 UNK        -0.0823 
     11 C11       -77.0259   26.3360  -70.2101 C.ar      11 UNK        -0.0830 
     12 C12       -75.7181   26.8251  -70.1073 C.ar      11 UNK        -0.1021 
     13 C13       -75.4356   28.1748  -70.3447 C.ar      11 UNK        -0.0753 
     14 C14       -76.4810   29.0416  -70.6767 C.ar      11 UNK        -0.0933 
     15 C15       -74.0121   28.6982  -70.1850 C.3       11 UNK         0.0166 
     16 S16       -73.2192   29.1141  -71.7753 S.3       11 UNK        -0.2615 
     17 C17       -73.7681   30.8379  -72.0412 C.3       11 UNK        -0.0865 
     18 CA        -74.5863   31.0068  -73.3561 C.3       10 UNK         0.0862 
     19 C         -75.3981   32.3371  -73.3991 C.2       10 UNK         0.5551 
     20 N         -75.5491   32.9834  -74.5476 N.am      10 UNK        -0.7319 
     21 O         -75.9343   32.7708  -72.3824 O.2       10 UNK        -0.5018 
     22 N         -73.7880   30.7230  -74.5644 N.am      10 UNK        -0.4509 
     23 C         -72.7053   31.4005  -74.9800 C.2       10 UNK         0.4899 
     24 O         -72.2720   32.4035  -74.4121 O.2       10 UNK        -0.4839 
     25 CA        -71.9501   30.8812  -76.2205 C.3       9 UNK         0.0222 
     26 CB        -70.4985   30.5238  -75.8550 C.3       9 UNK        -0.1966 
     27 N         -72.5792   29.7063  -76.8246 N.am      9 UNK        -0.4218 
     28 C         -73.5135   29.7318  -77.7845 C.2       9 UNK         0.5020 
     29 O         -73.8990   30.7585  -78.3446 O.2       9 UNK        -0.5274 
     30 CA        -74.1470   28.3777  -78.1597 C.3       8 UNK         0.0270 
     31 CB        -73.4061   27.7414  -79.3466 C.3       8 UNK        -0.1976 
     32 N         -74.1878   27.4245  -77.0433 N.am      8 UNK        -0.4313 
     33 C         -74.8645   27.6162  -75.9035 C.2       8 UNK         0.5041 
     34 O         -75.5452   28.6178  -75.6826 O.2       8 UNK        -0.5577 
     35 CA        -74.7198   26.5337  -74.8268 C.3       7 UNK         0.0284 
     36 CB        -75.6419   26.7651  -73.6217 C.3       7 UNK        -0.1958 
     37 N         -74.9861   25.2022  -75.3579 N.am      7 UNK        -0.4454 
     38 C         -74.0752   24.3826  -75.8953 C.2       7 UNK         0.5089 
     39 O         -72.9277   24.7373  -76.1705 O.2       7 UNK        -0.5125 
     40 CA        -74.5324   22.9346  -76.1646 C.3       6 UNK         0.0408 
     41 CB        -73.3630   21.9294  -76.1948 C.3       6 UNK        -0.1791 
     42 N         -75.5855   22.5056  -75.2340 N.am      6 UNK        -0.4762 
     43 C         -75.5161   22.4035  -73.8940 C.2       6 UNK         0.5007 
     44 O         -74.4621   22.4764  -73.2623 O.2       6 UNK        -0.5032 
     45 CA        -76.8513   22.2186  -73.1307 C.3       5 UNK         0.0783 
     46 C46       -77.2393   23.4885  -72.3239 C.3       11 UNK        -0.0857 
     47 S47       -76.3190   23.6685  -70.7617 S.3       11 UNK        -0.2512 
     48 C48       -77.3373   24.8833  -69.8557 C.3       11 UNK         0.0225 
     49 N         -77.9390   21.8591  -74.0454 N.am      5 UNK        -0.4615 
     50 C         -78.2199   20.6191  -74.4656 C.2       4 UNK         0.5053 
     51 O         -77.6554   19.6091  -74.0465 O.2       4 UNK        -0.5105 
     52 CA        -79.3000   20.4884  -75.5567 C.3       4 UNK         0.0263 
     53 CB        -80.6746   20.2256  -74.9211 C.3       4 UNK        -0.1981 
     54 N         -79.3858   21.6677  -76.4267 N.am      4 UNK        -0.4224 
     55 C         -78.4338   22.0517  -77.2912 C.2       3 UNK         0.4895 
     56 O         -77.4044   21.4122  -77.5004 O.2       3 UNK        -0.5091 
     57 CA        -78.6303   23.4039  -77.9985 C.3       3 UNK         0.0250 
     58 CB        -79.3371   23.2089  -79.3491 C.3       3 UNK        -0.1996 
     59 N         -79.3747   24.3755  -77.1908 N.am      3 UNK        -0.4254 
     60 C         -78.9321   24.9151  -76.0469 C.2       2 UNK         0.5004 
     61 O         -77.8325   24.6649  -75.5464 O.2       2 UNK        -0.5226 
     62 CA        -79.9177   25.8186  -75.2948 C.3       2 UNK         0.0269 
     63 CB        -80.3583   25.1604  -73.9774 C.3       2 UNK        -0.1926 
     64 N         -79.3542   27.1330  -74.9989 N.am      2 UNK        -0.4687 
     65 C         -79.1550   28.1070  -75.8944 C.2       1 UNK         0.5165 
     66 O         -79.3476   27.9611  -77.1036 O.2       1 UNK        -0.5079 
     67 H67       -80.7892   32.9169  -77.3878 H         1 UNK         0.0900 
     68 H68       -80.9811   33.3747  -75.6933 H         1 UNK         0.0900 
     69 H69       -81.7827   31.9305  -76.3129 H         1 UNK         0.0900 
     70 H70       -80.7334   30.0241  -75.7757 H         1 UNK         0.2959 
     71 H71       -77.8556   29.7623  -75.9357 H         1 UNK         0.1079 
     72 H72       -77.5405   28.8893  -73.6418 H         1 UNK         0.0837 
     73 H73       -77.9709   30.5676  -73.6384 H         1 UNK         0.0837 
     74 H74       -78.5685   30.5794  -71.0543 H         1 UNK         0.0685 
     75 H75       -79.6755   29.4674  -70.2920 H         1 UNK         0.0685 
     76 H76       -79.0770   26.8580  -70.6180 H         1 UNK         0.1434 
     77 H77       -74.9202   26.1518  -69.8249 H         1 UNK         0.1329 
     78 H78       -76.2811   30.0910  -70.8338 H         1 UNK         0.1335 
     79 H79       -74.0069   29.5641  -69.5216 H         1 UNK         0.0680 
     80 H80       -73.3941   27.9468  -69.6912 H         1 UNK         0.0680 
     81 H81       -72.8893   31.4834  -72.0473 H         1 UNK         0.1032 
     82 H82       -74.3438   31.1634  -71.1751 H         1 UNK         0.1032 
     83 H83       -75.3589   30.2379  -73.3482 H         1 UNK         0.0461 
     84 H84       -76.1066   33.8219  -74.5754 H         1 UNK         0.3453 
     85 H85       -75.1445   32.6166  -75.3937 H         1 UNK         0.3453 
     86 H86       -74.1396   29.9543  -75.1244 H         1 UNK         0.2984 
     87 H87       -71.9243   31.6942  -76.9490 H         1 UNK         0.0554 
     88 H88       -69.9402   30.1854  -76.7281 H         1 UNK         0.0847 
     89 H89       -70.4530   29.7375  -75.1003 H         1 UNK         0.0847 
     90 H90       -69.9700   31.3897  -75.4535 H         1 UNK         0.0847 
     91 H91       -72.3289   28.8099  -76.4329 H         1 UNK         0.3141 
     92 H92       -75.1777   28.5737  -78.4631 H         1 UNK         0.0743 
     93 H93       -72.3736   27.4957  -79.0949 H         1 UNK         0.0784 
     94 H94       -73.8985   26.8268  -79.6778 H         1 UNK         0.0784 
     95 H95       -73.3810   28.4209  -80.1999 H         1 UNK         0.0784 
     96 H96       -73.6415   26.5748  -77.1298 H         1 UNK         0.3213 
     97 H97       -73.6908   26.5823  -74.4634 H         1 UNK         0.0855 
     98 H98       -76.6939   26.6737  -73.8907 H         1 UNK         0.0814 
     99 H99       -75.4923   27.7565  -73.1965 H         1 UNK         0.0814 
    100 H100      -75.4317   26.0469  -72.8302 H         1 UNK         0.0814 
    101 H101      -75.9464   24.8740  -75.2804 H         1 UNK         0.3105 
    102 H102      -74.9886   22.9406  -77.1554 H         1 UNK         0.0547 
    103 H103      -72.6604   22.1735  -76.9924 H         1 UNK         0.0837 
    104 H104      -72.8018   21.9289  -75.2602 H         1 UNK         0.0837 
    105 H105      -73.7173   20.9148  -76.3758 H         1 UNK         0.0837 
    106 H106      -76.4954   22.3861  -75.6588 H         1 UNK         0.3020 
    107 H107      -76.7058   21.3938  -72.4289 H         1 UNK         0.1245 
    108 H108      -78.2956   23.4338  -72.0568 H         1 UNK         0.0781 
    109 H109      -77.1287   24.3937  -72.9211 H         1 UNK         0.0781 
    110 H110      -77.1536   24.7512  -68.7887 H         1 UNK         0.0836 
    111 H111      -78.3942   24.6589  -70.0067 H         1 UNK         0.0836 
    112 H112      -78.4344   22.6350  -74.4606 H         1 UNK         0.3022 
    113 H113      -79.0381   19.6287  -76.1775 H         1 UNK         0.0747 
    114 H114      -81.4375   20.0550  -75.6810 H         1 UNK         0.0793 
    115 H115      -80.6475   19.3376  -74.2877 H         1 UNK         0.0793 
    116 H116      -80.9998   21.0598  -74.2980 H         1 UNK         0.0793 
    117 H117      -80.2105   22.2430  -76.3358 H         1 UNK         0.3047 
    118 H118      -77.6382   23.8200  -78.1884 H         1 UNK         0.0822 
    119 H119      -79.4076   24.1476  -79.8992 H         1 UNK         0.0807 
    120 H120      -80.3464   22.8139  -79.2263 H         1 UNK         0.0807 
    121 H121      -78.7873   22.5078  -79.9790 H         1 UNK         0.0807 
    122 H122      -80.2866   24.6409  -77.5352 H         1 UNK         0.2946 
    123 H123      -80.8063   25.9649  -75.9134 H         1 UNK         0.1144 
    124 H124      -80.7450   24.1542  -74.1445 H         1 UNK         0.0793 
    125 H125      -81.1509   25.7346  -73.4970 H         1 UNK         0.0793 
    126 H126      -79.5325   25.0848  -73.2707 H         1 UNK         0.0793 
    127 H127      -79.1996   27.3537  -74.0242 H         1 UNK         0.2896 
@<TRIPOS>BOND
     1    1    2 1    
     2    1   67 1    
     3    1   68 1    
     4    1   69 1    
     5    2    3 2    
     6    2    4 am   BACKBONE|DICT|INTERRES
     7    4    5 1    
     8    4   70 1    
     9    5    6 1    
    10    5   65 1    
    11    5   71 1    
    12    6    7 1    
    13    6   72 1    
    14    6   73 1    
    15    7    8 1    
    16    8    9 1    
    17    8   74 1    
    18    8   75 1    
    19    9   10 ar   
    20    9   14 ar   
    21   10   11 ar   
    22   10   76 1    
    23   11   12 ar   
    24   11   48 1    
    25   12   13 ar   
    26   12   77 1    
    27   13   14 ar   
    28   13   15 1    
    29   14   78 1    
    30   15   16 1    
    31   15   79 1    
    32   15   80 1    
    33   16   17 1    
    34   17   18 1    
    35   17   81 1    
    36   17   82 1    
    37   18   19 1    
    38   18   22 1    
    39   18   83 1    
    40   19   20 am   BACKBONE|DICT|INTERRES
    41   19   21 2    
    42   20   84 1    
    43   20   85 1    
    44   22   23 am   BACKBONE|DICT|INTERRES
    45   22   86 1    
    46   23   24 2    
    47   23   25 1    
    48   25   26 1    
    49   25   27 1    
    50   25   87 1    
    51   26   88 1    
    52   26   89 1    
    53   26   90 1    
    54   27   28 am   BACKBONE|DICT|INTERRES
    55   27   91 1    
    56   28   29 2    
    57   28   30 1    
    58   30   31 1    
    59   30   32 1    
    60   30   92 1    
    61   31   93 1    
    62   31   94 1    
    63   31   95 1    
    64   32   33 am   BACKBONE|DICT|INTERRES
    65   32   96 1    
    66   33   34 2    
    67   33   35 1    
    68   35   36 1    
    69   35   37 1    
    70   35   97 1    
    71   36   98 1    
    72   36   99 1    
    73   36  100 1    
    74   37   38 am   BACKBONE|DICT|INTERRES
    75   37  101 1    
    76   38   39 2    
    77   38   40 1    
    78   40   41 1    
    79   40   42 1    
    80   40  102 1    
    81   41  103 1    
    82   41  104 1    
    83   41  105 1    
    84   42   43 am   BACKBONE|DICT|INTERRES
    85   42  106 1    
    86   43   44 2    
    87   43   45 1    
    88   45   46 1    
    89   45   49 1    
    90   45  107 1    
    91   46   47 1    
    92   46  108 1    
    93   46  109 1    
    94   47   48 1    
    95   48  110 1    
    96   48  111 1    
    97   49   50 am   BACKBONE|DICT|INTERRES
    98   49  112 1    
    99   50   51 2    
   100   50   52 1    
   101   52   53 1    
   102   52   54 1    
   103   52  113 1    
   104   53  114 1    
   105   53  115 1    
   106   53  116 1    
   107   54   55 am   BACKBONE|DICT|INTERRES
   108   54  117 1    
   109   55   56 2    
   110   55   57 1    
   111   57   58 1    
   112   57   59 1    
   113   57  118 1    
   114   58  119 1    
   115   58  120 1    
   116   58  121 1    
   117   59   60 am   BACKBONE|DICT|INTERRES
   118   59  122 1    
   119   60   61 2    
   120   60   62 1    
   121   62   63 1    
   122   62   64 1    
   123   62  123 1    
   124   63  124 1    
   125   63  125 1    
   126   63  126 1    
   127   64   65 am   BACKBONE|DICT|INTERRES
   128   64  127 1    
   129   65   66 2    
@<TRIPOS>SUBSTRUCTURE
     1 UNK         1 GROUP             0       ****    0 ROOT    
