@<TRIPOS>MOLECULE
3R135
127   129    1
SMALL
USER_CHARGES


@<TRIPOS>ATOM
      1 CA        -84.7611   26.9790  -71.8201 C.3       0 UNK        -0.1998 
      2 C         -83.3643   26.3803  -71.8895 C.2       0 UNK         0.4909 
      3 O         -83.1740   25.2348  -71.4803 O.2       0 UNK        -0.5240 
      4 N         -82.3957   27.1502  -72.4085 N.am      1 UNK        -0.4739 
      5 CA        -80.9764   26.7870  -72.5656 C.3       1 UNK         0.0864 
      6 C6        -80.2279   26.5943  -71.2175 C.3       11 UNK        -0.0881 
      7 S7        -80.3312   28.0655  -70.1417 S.3       11 UNK        -0.2682 
      8 C8        -78.5922   28.6260  -70.0934 C.3       11 UNK         0.0289 
      9 C9        -78.0466   29.2310  -71.3897 C.ar      11 UNK        -0.0687 
     10 C10       -78.8744   29.7917  -72.3712 C.ar      11 UNK        -0.0823 
     11 C11       -78.3314   30.3619  -73.5272 C.ar      11 UNK        -0.0830 
     12 C12       -76.9427   30.4317  -73.6701 C.ar      11 UNK        -0.1021 
     13 C13       -76.1016   29.8776  -72.7031 C.ar      11 UNK        -0.0753 
     14 C14       -76.6614   29.2659  -71.5766 C.ar      11 UNK        -0.0933 
     15 C15       -74.5917   29.9204  -72.8861 C.3       11 UNK         0.0166 
     16 S16       -73.7717   30.7632  -71.4936 S.3       11 UNK        -0.2615 
     17 C17       -72.0178   30.7813  -72.0124 C.3       11 UNK        -0.0865 
     18 CA        -71.2128   29.5094  -71.6303 C.3       10 UNK         0.0862 
     19 C         -71.1338   29.2780  -70.0910 C.2       10 UNK         0.5551 
     20 N         -71.6280   28.1671  -69.5583 N.am      10 UNK        -0.7319 
     21 O         -70.6009   30.1198  -69.3719 O.2       10 UNK        -0.5018 
     22 N         -71.6489   28.3616  -72.4369 N.am      10 UNK        -0.4509 
     23 C         -70.9572   27.2370  -72.6501 C.2       10 UNK         0.4899 
     24 O         -69.8706   26.9816  -72.1313 O.2       10 UNK        -0.4839 
     25 CA        -71.5818   26.2355  -73.6382 C.3       9 UNK         0.0222 
     26 CB        -72.5021   25.2523  -72.8977 C.3       9 UNK        -0.1966 
     27 N         -72.3307   26.8673  -74.7321 N.am      9 UNK        -0.4218 
     28 C         -71.8122   27.6880  -75.6582 C.2       9 UNK         0.5020 
     29 O         -70.6364   28.0584  -75.6733 O.2       9 UNK        -0.5274 
     30 CA        -72.7822   28.1315  -76.7692 C.3       8 UNK         0.0270 
     31 CB        -72.1561   29.1257  -77.7695 C.3       8 UNK        -0.1976 
     32 N         -73.3588   26.9768  -77.4675 N.am      8 UNK        -0.4313 
     33 C         -72.7085   26.0010  -78.1219 C.2       8 UNK         0.5041 
     34 O         -71.4917   25.9849  -78.3123 O.2       8 UNK        -0.5577 
     35 CA        -73.5477   24.8165  -78.6337 C.3       7 UNK         0.0284 
     36 CB        -73.3142   23.5856  -77.7417 C.3       7 UNK        -0.1958 
     37 N         -74.9839   25.1034  -78.6907 N.am      7 UNK        -0.4454 
     38 C         -75.5712   25.8306  -79.6512 C.2       7 UNK         0.5089 
     39 O         -74.9733   26.2914  -80.6241 O.2       7 UNK        -0.5125 
     40 CA        -77.0736   26.1187  -79.4836 C.3       6 UNK         0.0408 
     41 CB        -77.9111   24.9090  -79.9254 C.3       6 UNK        -0.1791 
     42 N         -77.4450   26.5025  -78.1182 N.am      6 UNK        -0.4762 
     43 C         -76.9909   27.5875  -77.4711 C.2       6 UNK         0.5007 
     44 O         -76.1788   28.3801  -77.9470 O.2       6 UNK        -0.5032 
     45 CA        -77.4880   27.7904  -76.0287 C.3       5 UNK         0.0783 
     46 C46       -78.9123   28.4018  -75.9780 C.3       11 UNK        -0.0857 
     47 S47       -78.8924   30.2050  -76.2712 S.3       11 UNK        -0.2512 
     48 C48       -79.2518   30.8990  -74.6182 C.3       11 UNK         0.0225 
     49 N         -77.3953   26.5371  -75.2809 N.am      5 UNK        -0.4615 
     50 C         -76.2502   26.0273  -74.8064 C.2       4 UNK         0.5053 
     51 O         -75.1620   26.6013  -74.8695 O.2       4 UNK        -0.5105 
     52 CA        -76.3177   24.6226  -74.1870 C.3       4 UNK         0.0263 
     53 CB        -76.5207   24.7117  -72.6673 C.3       4 UNK        -0.1981 
     54 N         -77.3655   23.7880  -74.7843 N.am      4 UNK        -0.4224 
     55 C         -77.3024   23.3008  -76.0332 C.2       3 UNK         0.4895 
     56 O         -76.3547   23.4962  -76.7919 O.2       3 UNK        -0.5091 
     57 CA        -78.5089   22.5002  -76.5509 C.3       3 UNK         0.0250 
     58 CB        -78.3667   21.0162  -76.1787 C.3       3 UNK        -0.1996 
     59 N         -79.8039   22.9992  -76.0849 N.am      3 UNK        -0.4254 
     60 C         -80.2737   24.2416  -76.2654 C.2       2 UNK         0.5004 
     61 O         -79.6489   25.1336  -76.8428 O.2       2 UNK        -0.5226 
     62 CA        -81.6545   24.5674  -75.6652 C.3       2 UNK         0.0269 
     63 CB        -82.4169   23.3374  -75.1206 C.3       2 UNK        -0.1926 
     64 N         -81.5729   25.6004  -74.6258 N.am      2 UNK        -0.4687 
     65 C         -80.7845   25.6006  -73.5375 C.2       1 UNK         0.5165 
     66 O         -79.9492   24.7262  -73.2951 O.2       1 UNK        -0.5079 
     67 H67       -85.1064   27.0044  -70.7869 H         1 UNK         0.0900 
     68 H68       -84.7906   27.9956  -72.2117 H         1 UNK         0.0900 
     69 H69       -85.4583   26.3726  -72.3977 H         1 UNK         0.0900 
     70 H70       -82.6344   28.0835  -72.7139 H         1 UNK         0.2959 
     71 H71       -80.5101   27.6307  -73.0706 H         1 UNK         0.1079 
     72 H72       -80.6303   25.7390  -70.6723 H         1 UNK         0.0837 
     73 H73       -79.1761   26.3683  -71.3942 H         1 UNK         0.0837 
     74 H74       -78.5030   29.3787  -69.3092 H         1 UNK         0.0685 
     75 H75       -77.9681   27.7865  -69.7825 H         1 UNK         0.0685 
     76 H76       -79.9467   29.7889  -72.2400 H         1 UNK         0.1434 
     77 H77       -76.5202   30.8936  -74.5521 H         1 UNK         0.1329 
     78 H78       -76.0086   28.8397  -70.8267 H         1 UNK         0.1335 
     79 H79       -74.3271   30.4249  -73.8169 H         1 UNK         0.0680 
     80 H80       -74.2344   28.8947  -72.9697 H         1 UNK         0.0680 
     81 H81       -71.9612   30.9534  -73.0885 H         1 UNK         0.1032 
     82 H82       -71.5498   31.6579  -71.5607 H         1 UNK         0.1032 
     83 H83       -70.1813   29.7023  -71.9317 H         1 UNK         0.0461 
     84 H84       -71.5667   28.0249  -68.5626 H         1 UNK         0.3453 
     85 H85       -72.0571   27.4708  -70.1450 H         1 UNK         0.3453 
     86 H86       -72.5392   28.4612  -72.8969 H         1 UNK         0.2984 
     87 H87       -70.7659   25.6665  -74.0884 H         1 UNK         0.0554 
     88 H88       -71.9662   24.7427  -72.0956 H         1 UNK         0.0847 
     89 H89       -72.8842   24.4833  -73.5692 H         1 UNK         0.0847 
     90 H90       -73.3559   25.7607  -72.4489 H         1 UNK         0.0847 
     91 H91       -73.3244   26.6491  -74.7972 H         1 UNK         0.3141 
     92 H92       -73.6120   28.6402  -76.2755 H         1 UNK         0.0743 
     93 H93       -71.8030   30.0218  -77.2577 H         1 UNK         0.0784 
     94 H94       -71.3034   28.6938  -78.2943 H         1 UNK         0.0784 
     95 H95       -72.8838   29.4433  -78.5164 H         1 UNK         0.0784 
     96 H96       -74.3624   26.8862  -77.3855 H         1 UNK         0.3213 
     97 H97       -73.2001   24.5780  -79.6413 H         1 UNK         0.0855 
     98 H98       -73.6150   23.7733  -76.7100 H         1 UNK         0.0814 
     99 H99       -72.2597   23.3068  -77.7276 H         1 UNK         0.0814 
    100 H100      -73.8731   22.7216  -78.1017 H         1 UNK         0.0814 
    101 H101      -75.5592   24.6927  -77.9566 H         1 UNK         0.3105 
    102 H102      -77.3247   26.9583  -80.1351 H         1 UNK         0.0547 
    103 H103      -78.9791   25.1131  -79.8469 H         1 UNK         0.0837 
    104 H104      -77.7049   24.6519  -80.9652 H         1 UNK         0.0837 
    105 H105      -77.6930   24.0271  -79.3238 H         1 UNK         0.0837 
    106 H106      -78.1391   25.9206  -77.6530 H         1 UNK         0.3020 
    107 H107      -76.7982   28.4918  -75.5563 H         1 UNK         0.1245 
    108 H108      -79.3631   28.2187  -75.0040 H         1 UNK         0.0781 
    109 H109      -79.5796   27.9281  -76.7007 H         1 UNK         0.0781 
    110 H110      -80.2969   30.6961  -74.3791 H         1 UNK         0.0836 
    111 H111      -79.1528   31.9843  -74.6619 H         1 UNK         0.0836 
    112 H112      -78.2279   25.9643  -75.2542 H         1 UNK         0.3022 
    113 H113      -75.3554   24.1399  -74.3709 H         1 UNK         0.0747 
    114 H114      -75.7399   25.3136  -72.2013 H         1 UNK         0.0793 
    115 H115      -77.4746   25.1717  -72.4152 H         1 UNK         0.0793 
    116 H116      -76.4904   23.7255  -72.2042 H         1 UNK         0.0793 
    117 H117      -78.2078   23.6448  -74.2390 H         1 UNK         0.3047 
    118 H118      -78.5078   22.5764  -77.6394 H         1 UNK         0.0822 
    119 H119      -77.4169   20.6142  -76.5348 H         1 UNK         0.0807 
    120 H120      -79.1580   20.4158  -76.6280 H         1 UNK         0.0807 
    121 H121      -78.4004   20.8644  -75.0990 H         1 UNK         0.0807 
    122 H122      -80.3794   22.3481  -75.5708 H         1 UNK         0.2946 
    123 H123      -82.2420   24.9869  -76.4837 H         1 UNK         0.1144 
    124 H124      -83.4159   23.6185  -74.7865 H         1 UNK         0.0793 
    125 H125      -81.9097   22.8790  -74.2706 H         1 UNK         0.0793 
    126 H126      -82.5451   22.5746  -75.8900 H         1 UNK         0.0793 
    127 H127      -82.2090   26.3774  -74.7376 H         1 UNK         0.2896 
@<TRIPOS>BOND
     1    1    2 1    
     2    1   67 1    
     3    1   68 1    
     4    1   69 1    
     5    2    3 2    
     6    2    4 am   BACKBONE|DICT|INTERRES
     7    4    5 1    
     8    4   70 1    
     9    5    6 1    
    10    5   65 1    
    11    5   71 1    
    12    6    7 1    
    13    6   72 1    
    14    6   73 1    
    15    7    8 1    
    16    8    9 1    
    17    8   74 1    
    18    8   75 1    
    19    9   10 ar   
    20    9   14 ar   
    21   10   11 ar   
    22   10   76 1    
    23   11   12 ar   
    24   11   48 1    
    25   12   13 ar   
    26   12   77 1    
    27   13   14 ar   
    28   13   15 1    
    29   14   78 1    
    30   15   16 1    
    31   15   79 1    
    32   15   80 1    
    33   16   17 1    
    34   17   18 1    
    35   17   81 1    
    36   17   82 1    
    37   18   19 1    
    38   18   22 1    
    39   18   83 1    
    40   19   20 am   BACKBONE|DICT|INTERRES
    41   19   21 2    
    42   20   84 1    
    43   20   85 1    
    44   22   23 am   BACKBONE|DICT|INTERRES
    45   22   86 1    
    46   23   24 2    
    47   23   25 1    
    48   25   26 1    
    49   25   27 1    
    50   25   87 1    
    51   26   88 1    
    52   26   89 1    
    53   26   90 1    
    54   27   28 am   BACKBONE|DICT|INTERRES
    55   27   91 1    
    56   28   29 2    
    57   28   30 1    
    58   30   31 1    
    59   30   32 1    
    60   30   92 1    
    61   31   93 1    
    62   31   94 1    
    63   31   95 1    
    64   32   33 am   BACKBONE|DICT|INTERRES
    65   32   96 1    
    66   33   34 2    
    67   33   35 1    
    68   35   36 1    
    69   35   37 1    
    70   35   97 1    
    71   36   98 1    
    72   36   99 1    
    73   36  100 1    
    74   37   38 am   BACKBONE|DICT|INTERRES
    75   37  101 1    
    76   38   39 2    
    77   38   40 1    
    78   40   41 1    
    79   40   42 1    
    80   40  102 1    
    81   41  103 1    
    82   41  104 1    
    83   41  105 1    
    84   42   43 am   BACKBONE|DICT|INTERRES
    85   42  106 1    
    86   43   44 2    
    87   43   45 1    
    88   45   46 1    
    89   45   49 1    
    90   45  107 1    
    91   46   47 1    
    92   46  108 1    
    93   46  109 1    
    94   47   48 1    
    95   48  110 1    
    96   48  111 1    
    97   49   50 am   BACKBONE|DICT|INTERRES
    98   49  112 1    
    99   50   51 2    
   100   50   52 1    
   101   52   53 1    
   102   52   54 1    
   103   52  113 1    
   104   53  114 1    
   105   53  115 1    
   106   53  116 1    
   107   54   55 am   BACKBONE|DICT|INTERRES
   108   54  117 1    
   109   55   56 2    
   110   55   57 1    
   111   57   58 1    
   112   57   59 1    
   113   57  118 1    
   114   58  119 1    
   115   58  120 1    
   116   58  121 1    
   117   59   60 am   BACKBONE|DICT|INTERRES
   118   59  122 1    
   119   60   61 2    
   120   60   62 1    
   121   62   63 1    
   122   62   64 1    
   123   62  123 1    
   124   63  124 1    
   125   63  125 1    
   126   63  126 1    
   127   64   65 am   BACKBONE|DICT|INTERRES
   128   64  127 1    
   129   65   66 2    
@<TRIPOS>SUBSTRUCTURE
     1 UNK         1 GROUP             0       ****    0 ROOT    
