@<TRIPOS>MOLECULE
3R135
127   129    1
SMALL
USER_CHARGES


@<TRIPOS>ATOM
      1 CA        -79.7091   30.7566  -76.0022 C.3       0 UNK        -0.1998 
      2 C         -79.7001   29.5506  -75.0753 C.2       0 UNK         0.4909 
      3 O         -78.7218   28.8069  -75.0549 O.2       0 UNK        -0.5240 
      4 N         -80.7779   29.3599  -74.3050 N.am      1 UNK        -0.4739 
      5 CA        -80.9547   28.2334  -73.3820 C.3       1 UNK         0.0864 
      6 C6        -82.0506   28.5137  -72.3194 C.3       11 UNK        -0.0881 
      7 S7        -81.8585   30.1144  -71.4586 S.3       11 UNK        -0.2682 
      8 C8        -81.0251   29.6357  -69.9129 C.3       11 UNK         0.0289 
      9 C9        -79.5603   29.2936  -70.1403 C.ar      11 UNK        -0.0687 
     10 C10       -79.1240   27.9662  -70.0658 C.ar      11 UNK        -0.0823 
     11 C11       -77.7772   27.6545  -70.2739 C.ar      11 UNK        -0.0830 
     12 C12       -76.8654   28.6798  -70.5271 C.ar      11 UNK        -0.1021 
     13 C13       -77.2897   30.0048  -70.6250 C.ar      11 UNK        -0.0753 
     14 C14       -78.6391   30.3094  -70.4240 C.ar      11 UNK        -0.0933 
     15 C15       -76.2759   31.0877  -70.9552 C.3       11 UNK         0.0166 
     16 S16       -75.7547   30.9887  -72.7012 S.3       11 UNK        -0.2615 
     17 C17       -73.9620   31.3335  -72.5721 C.3       11 UNK        -0.0865 
     18 CA        -73.0420   30.1044  -72.8333 C.3       10 UNK         0.0862 
     19 C         -73.2320   28.9398  -71.8254 C.2       10 UNK         0.5551 
     20 N         -72.9580   29.1767  -70.5495 N.am      10 UNK        -0.7319 
     21 O         -73.6228   27.8287  -72.1786 O.2       10 UNK        -0.5018 
     22 N         -73.1029   29.6331  -74.2211 N.am      10 UNK        -0.4509 
     23 C         -72.4562   30.1929  -75.2492 C.2       10 UNK         0.4899 
     24 O         -71.7935   31.2284  -75.1584 O.2       10 UNK        -0.4839 
     25 CA        -72.5577   29.4581  -76.5983 C.3       9 UNK         0.0222 
     26 CB        -71.6200   30.0289  -77.6832 C.3       9 UNK        -0.1966 
     27 N         -72.3767   28.0117  -76.4491 N.am      9 UNK        -0.4218 
     28 C         -71.2957   27.3455  -76.0169 C.2       9 UNK         0.5020 
     29 O         -70.2207   27.8754  -75.7325 O.2       9 UNK        -0.5274 
     30 CA        -71.4400   25.8188  -75.8606 C.3       8 UNK         0.0270 
     31 CB        -71.7164   25.4583  -74.3917 C.3       8 UNK        -0.1976 
     32 N         -72.4934   25.2438  -76.7042 N.am      8 UNK        -0.4313 
     33 C         -72.4258   25.1413  -78.0397 C.2       8 UNK         0.5041 
     34 O         -71.4264   25.4306  -78.6990 O.2       8 UNK        -0.5577 
     35 CA        -73.6956   24.6670  -78.7675 C.3       7 UNK         0.0284 
     36 CB        -73.8047   23.1344  -78.7337 C.3       7 UNK        -0.1958 
     37 N         -74.9177   25.2696  -78.2254 N.am      7 UNK        -0.4454 
     38 C         -75.2158   26.5764  -78.2926 C.2       7 UNK         0.5089 
     39 O         -74.5225   27.4079  -78.8776 O.2       7 UNK        -0.5125 
     40 CA        -76.4761   27.0485  -77.5492 C.3       6 UNK         0.0408 
     41 CB        -77.7351   26.8267  -78.4005 C.3       6 UNK        -0.1791 
     42 N         -76.6422   26.3950  -76.2525 N.am      6 UNK        -0.4762 
     43 C         -75.8211   26.5378  -75.2021 C.2       6 UNK         0.5007 
     44 O         -74.8333   27.2713  -75.1976 O.2       6 UNK        -0.5032 
     45 CA        -76.1364   25.6684  -73.9702 C.3       5 UNK         0.0783 
     46 C46       -77.2589   26.3264  -73.1343 C.3       11 UNK        -0.0857 
     47 S47       -77.8631   25.3028  -71.7430 S.3       11 UNK        -0.2512 
     48 C48       -77.2974   26.2115  -70.2695 C.3       11 UNK         0.0225 
     49 N         -76.4619   24.2965  -74.3705 N.am      5 UNK        -0.4615 
     50 C         -75.6100   23.4366  -74.9422 C.2       4 UNK         0.5053 
     51 O         -74.4307   23.6957  -75.1789 O.2       4 UNK        -0.5105 
     52 CA        -76.1833   22.0689  -75.3505 C.3       4 UNK         0.0263 
     53 CB        -76.1821   21.1049  -74.1536 C.3       4 UNK        -0.1981 
     54 N         -77.5381   22.1666  -75.9015 N.am      4 UNK        -0.4224 
     55 C         -77.8391   22.7647  -77.0636 C.2       3 UNK         0.4895 
     56 O         -76.9992   23.2480  -77.8221 O.2       3 UNK        -0.5091 
     57 CA        -79.3337   22.8927  -77.4130 C.3       3 UNK         0.0250 
     58 CB        -79.8459   21.6065  -78.0805 C.3       3 UNK        -0.1996 
     59 N         -80.1864   23.2289  -76.2640 N.am      3 UNK        -0.4254 
     60 C         -80.0326   24.3210  -75.5013 C.2       2 UNK         0.5004 
     61 O         -79.1368   25.1459  -75.6839 O.2       2 UNK        -0.5226 
     62 CA        -81.0052   24.4872  -74.3182 C.3       2 UNK         0.0269 
     63 CB        -80.7906   23.3779  -73.2728 C.3       2 UNK        -0.1926 
     64 N         -80.8455   25.7903  -73.6618 N.am      2 UNK        -0.4687 
     65 C         -81.2948   26.9473  -74.1665 C.2       1 UNK         0.5165 
     66 O         -81.9963   27.0180  -75.1804 O.2       1 UNK        -0.5079 
     67 H67       -80.6313   31.3309  -75.9162 H         1 UNK         0.0900 
     68 H68       -79.6046   30.4331  -77.0375 H         1 UNK         0.0900 
     69 H69       -78.8745   31.4158  -75.7647 H         1 UNK         0.0900 
     70 H70       -81.5590   29.9964  -74.3667 H         1 UNK         0.2959 
     71 H71       -80.0052   28.0788  -72.8642 H         1 UNK         0.1079 
     72 H72       -82.0784   27.7103  -71.5809 H         1 UNK         0.0837 
     73 H73       -83.0375   28.5214  -72.7870 H         1 UNK         0.0837 
     74 H74       -81.0897   30.4673  -69.2098 H         1 UNK         0.0685 
     75 H75       -81.5579   28.8043  -69.4488 H         1 UNK         0.0685 
     76 H76       -79.8313   27.1731  -69.8650 H         1 UNK         0.1434 
     77 H77       -75.8247   28.4417  -70.6927 H         1 UNK         0.1329 
     78 H78       -78.9777   31.3340  -70.4964 H         1 UNK         0.1335 
     79 H79       -75.4195   30.9695  -70.2903 H         1 UNK         0.0680 
     80 H80       -76.6846   32.0801  -70.7593 H         1 UNK         0.0680 
     81 H81       -73.7265   32.1200  -73.2902 H         1 UNK         0.1032 
     82 H82       -73.7350   31.7732  -71.6003 H         1 UNK         0.1032 
     83 H83       -72.0138   30.4343  -72.6702 H         1 UNK         0.0461 
     84 H84       -72.6176   30.0741  -70.2428 H         1 UNK         0.3453 
     85 H85       -73.0670   28.4299  -69.8820 H         1 UNK         0.3453 
     86 H86       -73.6231   28.7706  -74.3608 H         1 UNK         0.2984 
     87 H87       -73.5831   29.5969  -76.9441 H         1 UNK         0.0554 
     88 H88       -71.7342   29.4921  -78.6251 H         1 UNK         0.0847 
     89 H89       -70.5721   29.9707  -77.3877 H         1 UNK         0.0847 
     90 H90       -71.8440   31.0781  -77.8790 H         1 UNK         0.0847 
     91 H91       -73.2266   27.4704  -76.5568 H         1 UNK         0.3141 
     92 H92       -70.4889   25.3672  -76.1505 H         1 UNK         0.0743 
     93 H93       -71.7512   24.3784  -74.2473 H         1 UNK         0.0784 
     94 H94       -70.9353   25.8492  -73.7383 H         1 UNK         0.0784 
     95 H95       -72.6651   25.8722  -74.0475 H         1 UNK         0.0784 
     96 H96       -73.3233   24.8983  -76.2274 H         1 UNK         0.3213 
     97 H97       -73.6110   24.9761  -79.8116 H         1 UNK         0.0855 
     98 H98       -72.9132   22.6707  -79.1581 H         1 UNK         0.0814 
     99 H99       -74.6588   22.7851  -79.3140 H         1 UNK         0.0814 
    100 H100      -73.9152   22.7581  -77.7167 H         1 UNK         0.0814 
    101 H101      -75.5872   24.6398  -77.7917 H         1 UNK         0.3105 
    102 H102      -76.3756   28.1204  -77.3656 H         1 UNK         0.0547 
    103 H103      -77.6540   27.3404  -79.3592 H         1 UNK         0.0837 
    104 H104      -77.9020   25.7694  -78.6076 H         1 UNK         0.0837 
    105 H105      -78.6225   27.2121  -77.8973 H         1 UNK         0.0837 
    106 H106      -77.4768   25.8229  -76.1303 H         1 UNK         0.3020 
    107 H107      -75.2327   25.6308  -73.3572 H         1 UNK         0.1245 
    108 H108      -78.1217   26.5460  -73.7621 H         1 UNK         0.0781 
    109 H109      -76.9145   27.2964  -72.7794 H         1 UNK         0.0781 
    110 H110      -76.2082   26.1626  -70.2211 H         1 UNK         0.0836 
    111 H111      -77.6670   25.7075  -69.3755 H         1 UNK         0.0836 
    112 H112      -77.4257   24.0246  -74.2511 H         1 UNK         0.3022 
    113 H113      -75.5335   21.6537  -76.1237 H         1 UNK         0.0747 
    114 H114      -76.5136   20.1085  -74.4461 H         1 UNK         0.0793 
    115 H115      -75.1782   21.0017  -73.7389 H         1 UNK         0.0793 
    116 H116      -76.8319   21.4539  -73.3499 H         1 UNK         0.0793 
    117 H117      -78.2915   21.7929  -75.3433 H         1 UNK         0.3047 
    118 H118      -79.4263   23.7082  -78.1335 H         1 UNK         0.0822 
    119 H119      -79.8195   20.7562  -77.3979 H         1 UNK         0.0807 
    120 H120      -79.2356   21.3478  -78.9472 H         1 UNK         0.0807 
    121 H121      -80.8708   21.7232  -78.4332 H         1 UNK         0.0807 
    122 H122      -80.9401   22.5892  -76.0570 H         1 UNK         0.2946 
    123 H123      -82.0238   24.4140  -74.7064 H         1 UNK         0.1144 
    124 H124      -81.0184   22.3943  -73.6850 H         1 UNK         0.0793 
    125 H125      -79.7612   23.3482  -72.9156 H         1 UNK         0.0793 
    126 H126      -81.4398   23.5170  -72.4081 H         1 UNK         0.0793 
    127 H127      -80.2499   25.8069  -72.8459 H         1 UNK         0.2896 
@<TRIPOS>BOND
     1    1    2 1    
     2    1   67 1    
     3    1   68 1    
     4    1   69 1    
     5    2    3 2    
     6    2    4 am   BACKBONE|DICT|INTERRES
     7    4    5 1    
     8    4   70 1    
     9    5    6 1    
    10    5   65 1    
    11    5   71 1    
    12    6    7 1    
    13    6   72 1    
    14    6   73 1    
    15    7    8 1    
    16    8    9 1    
    17    8   74 1    
    18    8   75 1    
    19    9   10 ar   
    20    9   14 ar   
    21   10   11 ar   
    22   10   76 1    
    23   11   12 ar   
    24   11   48 1    
    25   12   13 ar   
    26   12   77 1    
    27   13   14 ar   
    28   13   15 1    
    29   14   78 1    
    30   15   16 1    
    31   15   79 1    
    32   15   80 1    
    33   16   17 1    
    34   17   18 1    
    35   17   81 1    
    36   17   82 1    
    37   18   19 1    
    38   18   22 1    
    39   18   83 1    
    40   19   20 am   BACKBONE|DICT|INTERRES
    41   19   21 2    
    42   20   84 1    
    43   20   85 1    
    44   22   23 am   BACKBONE|DICT|INTERRES
    45   22   86 1    
    46   23   24 2    
    47   23   25 1    
    48   25   26 1    
    49   25   27 1    
    50   25   87 1    
    51   26   88 1    
    52   26   89 1    
    53   26   90 1    
    54   27   28 am   BACKBONE|DICT|INTERRES
    55   27   91 1    
    56   28   29 2    
    57   28   30 1    
    58   30   31 1    
    59   30   32 1    
    60   30   92 1    
    61   31   93 1    
    62   31   94 1    
    63   31   95 1    
    64   32   33 am   BACKBONE|DICT|INTERRES
    65   32   96 1    
    66   33   34 2    
    67   33   35 1    
    68   35   36 1    
    69   35   37 1    
    70   35   97 1    
    71   36   98 1    
    72   36   99 1    
    73   36  100 1    
    74   37   38 am   BACKBONE|DICT|INTERRES
    75   37  101 1    
    76   38   39 2    
    77   38   40 1    
    78   40   41 1    
    79   40   42 1    
    80   40  102 1    
    81   41  103 1    
    82   41  104 1    
    83   41  105 1    
    84   42   43 am   BACKBONE|DICT|INTERRES
    85   42  106 1    
    86   43   44 2    
    87   43   45 1    
    88   45   46 1    
    89   45   49 1    
    90   45  107 1    
    91   46   47 1    
    92   46  108 1    
    93   46  109 1    
    94   47   48 1    
    95   48  110 1    
    96   48  111 1    
    97   49   50 am   BACKBONE|DICT|INTERRES
    98   49  112 1    
    99   50   51 2    
   100   50   52 1    
   101   52   53 1    
   102   52   54 1    
   103   52  113 1    
   104   53  114 1    
   105   53  115 1    
   106   53  116 1    
   107   54   55 am   BACKBONE|DICT|INTERRES
   108   54  117 1    
   109   55   56 2    
   110   55   57 1    
   111   57   58 1    
   112   57   59 1    
   113   57  118 1    
   114   58  119 1    
   115   58  120 1    
   116   58  121 1    
   117   59   60 am   BACKBONE|DICT|INTERRES
   118   59  122 1    
   119   60   61 2    
   120   60   62 1    
   121   62   63 1    
   122   62   64 1    
   123   62  123 1    
   124   63  124 1    
   125   63  125 1    
   126   63  126 1    
   127   64   65 am   BACKBONE|DICT|INTERRES
   128   64  127 1    
   129   65   66 2    
@<TRIPOS>SUBSTRUCTURE
     1 UNK         1 GROUP             0       ****    0 ROOT    
