@<TRIPOS>MOLECULE
3R135
127   129    1
SMALL
USER_CHARGES


@<TRIPOS>ATOM
      1 CA        -83.7124   30.2975  -72.3143 C.3       0 UNK        -0.1998 
      2 C         -83.2489   29.8936  -73.7057 C.2       0 UNK         0.4909 
      3 O         -84.0751   29.5426  -74.5486 O.2       0 UNK        -0.5240 
      4 N         -81.9337   29.9459  -73.9528 N.am      1 UNK        -0.4739 
      5 CA        -81.2903   29.5528  -75.2133 C.3       1 UNK         0.0864 
      6 C6        -79.8280   30.0638  -75.3085 C.3       11 UNK        -0.0881 
      7 S7        -78.8253   29.7389  -73.8144 S.3       11 UNK        -0.2682 
      8 C8        -77.7329   28.4059  -74.3887 C.3       11 UNK         0.0289 
      9 C9        -76.8850   27.8817  -73.2424 C.ar      11 UNK        -0.0687 
     10 C10       -77.2827   26.7447  -72.5358 C.ar      11 UNK        -0.0823 
     11 C11       -76.5009   26.2413  -71.4894 C.ar      11 UNK        -0.0830 
     12 C12       -75.3198   26.9080  -71.1426 C.ar      11 UNK        -0.1021 
     13 C13       -74.9206   28.0616  -71.8266 C.ar      11 UNK        -0.0753 
     14 C14       -75.7086   28.5400  -72.8786 C.ar      11 UNK        -0.0933 
     15 C15       -73.6764   28.8240  -71.3858 C.3       11 UNK         0.0166 
     16 S16       -72.5591   29.2128  -72.7712 S.3       11 UNK        -0.2615 
     17 C17       -71.5292   30.5231  -72.0232 C.3       11 UNK        -0.0865 
     18 CA        -72.1876   31.9338  -72.0986 C.3       10 UNK         0.0862 
     19 C         -71.3803   33.0214  -71.3243 C.2       10 UNK         0.5551 
     20 N         -71.4263   34.2853  -71.7274 N.am      10 UNK        -0.7319 
     21 O         -70.7304   32.7259  -70.3241 O.2       10 UNK        -0.5018 
     22 N         -72.5964   32.3050  -73.4667 N.am      10 UNK        -0.4509 
     23 C         -71.7838   32.5529  -74.5029 C.2       10 UNK         0.4899 
     24 O         -70.5538   32.5782  -74.4315 O.2       10 UNK        -0.4839 
     25 CA        -72.4947   32.7842  -75.8513 C.3       9 UNK         0.0222 
     26 CB        -71.5219   33.1335  -76.9988 C.3       9 UNK        -0.1966 
     27 N         -73.3568   31.6491  -76.2149 N.am      9 UNK        -0.4218 
     28 C         -72.9716   30.3775  -76.4031 C.2       9 UNK         0.5020 
     29 O         -71.8004   29.9868  -76.3635 O.2       9 UNK        -0.5274 
     30 CA        -74.0840   29.3644  -76.7004 C.3       8 UNK         0.0270 
     31 CB        -74.5321   29.4489  -78.1729 C.3       8 UNK        -0.1976 
     32 N         -73.5509   28.0415  -76.3957 N.am      8 UNK        -0.4313 
     33 C         -74.2345   26.9020  -76.2756 C.2       8 UNK         0.5041 
     34 O         -75.4514   26.7949  -76.4510 O.2       8 UNK        -0.5577 
     35 CA        -73.4112   25.6726  -75.8776 C.3       7 UNK         0.0284 
     36 CB        -73.1894   25.6295  -74.3548 C.3       7 UNK        -0.1958 
     37 N         -74.1299   24.4731  -76.2878 N.am      7 UNK        -0.4454 
     38 C         -73.5765   23.3319  -76.7133 C.2       7 UNK         0.5089 
     39 O         -72.3633   23.1691  -76.8584 O.2       7 UNK        -0.5125 
     40 CA        -74.5586   22.1744  -76.9891 C.3       6 UNK         0.0408 
     41 CB        -73.8575   20.8187  -77.2173 C.3       6 UNK        -0.1791 
     42 N         -75.5837   22.0722  -75.9423 N.am      6 UNK        -0.4762 
     43 C         -75.3809   21.8668  -74.6279 C.2       6 UNK         0.5007 
     44 O         -74.2857   21.5880  -74.1383 O.2       6 UNK        -0.5032 
     45 CA        -76.5872   22.0521  -73.6820 C.3       5 UNK         0.0783 
     46 C46       -76.4515   23.4173  -72.9667 C.3       11 UNK        -0.0857 
     47 S47       -77.7263   23.6975  -71.6967 S.3       11 UNK        -0.2512 
     48 C48       -76.9286   25.0040  -70.6975 C.3       11 UNK         0.0225 
     49 N         -77.8731   21.9220  -74.3775 N.am      5 UNK        -0.4615 
     50 C         -78.3546   20.7701  -74.8680 C.2       4 UNK         0.5053 
     51 O         -77.8155   19.6784  -74.6847 O.2       4 UNK        -0.5105 
     52 CA        -79.6319   20.8321  -75.7295 C.3       4 UNK         0.0263 
     53 CB        -80.8524   20.3903  -74.9058 C.3       4 UNK        -0.1981 
     54 N         -79.9061   22.1469  -76.3171 N.am      4 UNK        -0.4224 
     55 C         -79.1015   22.8285  -77.1470 C.2       3 UNK         0.4895 
     56 O         -78.0348   22.3910  -77.5780 O.2       3 UNK        -0.5091 
     57 CA        -79.5300   24.2605  -77.5204 C.3       3 UNK         0.0250 
     58 CB        -80.1499   24.2859  -78.9265 C.3       3 UNK        -0.1996 
     59 N         -80.4616   24.8826  -76.5703 N.am      3 UNK        -0.4254 
     60 C         -80.2080   25.1133  -75.2746 C.2       2 UNK         0.5004 
     61 O         -79.1464   24.8126  -74.7278 O.2       2 UNK        -0.5226 
     62 CA        -81.3396   25.7615  -74.4553 C.3       2 UNK         0.0269 
     63 CB        -81.3613   25.2378  -73.0076 C.3       2 UNK        -0.1926 
     64 N         -81.2463   27.2222  -74.4298 N.am      2 UNK        -0.4687 
     65 C         -81.3928   28.0371  -75.4852 C.2       1 UNK         0.5165 
     66 O         -81.6362   27.6436  -76.6268 O.2       1 UNK        -0.5079 
     67 H67       -84.2287   29.4661  -71.8351 H         1 UNK         0.0900 
     68 H68       -84.4038   31.1373  -72.3782 H         1 UNK         0.0900 
     69 H69       -82.8791   30.5921  -71.6765 H         1 UNK         0.0900 
     70 H70       -81.2979   30.2444  -73.2256 H         1 UNK         0.2959 
     71 H71       -81.8501   30.0361  -76.0177 H         1 UNK         0.1079 
     72 H72       -79.3273   29.6661  -76.1939 H         1 UNK         0.0837 
     73 H73       -79.8424   31.1454  -75.4512 H         1 UNK         0.0837 
     74 H74       -78.3257   27.5977  -74.8191 H         1 UNK         0.0685 
     75 H75       -77.0917   28.7769  -75.1891 H         1 UNK         0.0685 
     76 H76       -78.2021   26.2476  -72.8089 H         1 UNK         0.1434 
     77 H77       -74.7193   26.5396  -70.3220 H         1 UNK         0.1329 
     78 H78       -75.4128   29.4348  -73.4083 H         1 UNK         0.1335 
     79 H79       -73.9995   29.7474  -70.9045 H         1 UNK         0.0680 
     80 H80       -73.1183   28.2606  -70.6364 H         1 UNK         0.0680 
     81 H81       -70.5644   30.5318  -72.5328 H         1 UNK         0.1032 
     82 H82       -71.3181   30.2461  -70.9886 H         1 UNK         0.1032 
     83 H83       -73.1237   31.8716  -71.5436 H         1 UNK         0.0461 
     84 H84       -71.9618   34.5409  -72.5415 H         1 UNK         0.3453 
     85 H85       -70.9122   34.9868  -71.2182 H         1 UNK         0.3453 
     86 H86       -73.5925   32.3194  -73.6283 H         1 UNK         0.2984 
     87 H87       -73.1534   33.6427  -75.7114 H         1 UNK         0.0554 
     88 H88       -72.0571   33.3237  -77.9290 H         1 UNK         0.0847 
     89 H89       -70.8032   32.3345  -77.1835 H         1 UNK         0.0847 
     90 H90       -70.9509   34.0326  -76.7639 H         1 UNK         0.0847 
     91 H91       -74.3437   31.8581  -76.2807 H         1 UNK         0.3141 
     92 H92       -74.9288   29.5635  -76.0387 H         1 UNK         0.0743 
     93 H93       -73.7095   29.2306  -78.8551 H         1 UNK         0.0784 
     94 H94       -75.3386   28.7475  -78.3871 H         1 UNK         0.0784 
     95 H95       -74.9027   30.4454  -78.4158 H         1 UNK         0.0784 
     96 H96       -72.5544   28.0622  -76.2047 H         1 UNK         0.3213 
     97 H97       -72.4472   25.7191  -76.3895 H         1 UNK         0.0855 
     98 H98       -72.6020   26.4844  -74.0200 H         1 UNK         0.0814 
     99 H99       -72.6514   24.7301  -74.0549 H         1 UNK         0.0814 
    100 H100      -74.1348   25.6514  -73.8101 H         1 UNK         0.0814 
    101 H101      -75.1376   24.5675  -76.2717 H         1 UNK         0.3105 
    102 H102      -75.0860   22.4312  -77.9089 H         1 UNK         0.0547 
    103 H103      -73.1899   20.8667  -78.0783 H         1 UNK         0.0837 
    104 H104      -73.2556   20.5207  -76.3584 H         1 UNK         0.0837 
    105 H105      -74.5804   20.0268  -77.4119 H         1 UNK         0.0837 
    106 H106      -76.5319   22.2537  -76.2590 H         1 UNK         0.3020 
    107 H107      -76.5268   21.2611  -72.9309 H         1 UNK         0.1245 
    108 H108      -76.5042   24.2330  -73.6911 H         1 UNK         0.0781 
    109 H109      -75.4749   23.5002  -72.4843 H         1 UNK         0.0781 
    110 H110      -76.0685   24.5651  -70.1893 H         1 UNK         0.0836 
    111 H111      -77.6217   25.3153  -69.9152 H         1 UNK         0.0836 
    112 H112      -78.3820   22.7855  -74.5340 H         1 UNK         0.3022 
    113 H113      -79.4982   20.1283  -76.5536 H         1 UNK         0.0747 
    114 H114      -81.7506   20.3366  -75.5215 H         1 UNK         0.0793 
    115 H115      -80.6969   19.3987  -74.4778 H         1 UNK         0.0793 
    116 H116      -81.0497   21.0742  -74.0791 H         1 UNK         0.0793 
    117 H117      -80.7597   22.5984  -76.0241 H         1 UNK         0.3047 
    118 H118      -78.6243   24.8709  -77.5331 H         1 UNK         0.0822 
    119 H119      -80.3689   25.3053  -79.2453 H         1 UNK         0.0807 
    120 H120      -81.0768   23.7126  -78.9699 H         1 UNK         0.0807 
    121 H121      -79.4671   23.8585  -79.6625 H         1 UNK         0.0807 
    122 H122      -81.3340   25.2224  -76.9526 H         1 UNK         0.2946 
    123 H123      -82.2913   25.4916  -74.9187 H         1 UNK         0.1144 
    124 H124      -81.4135   24.1483  -72.9870 H         1 UNK         0.0793 
    125 H125      -82.2274   25.6132  -72.4625 H         1 UNK         0.0793 
    126 H126      -80.4669   25.5279  -72.4553 H         1 UNK         0.0793 
    127 H127      -81.0346   27.6463  -73.5384 H         1 UNK         0.2896 
@<TRIPOS>BOND
     1    1    2 1    
     2    1   67 1    
     3    1   68 1    
     4    1   69 1    
     5    2    3 2    
     6    2    4 am   BACKBONE|DICT|INTERRES
     7    4    5 1    
     8    4   70 1    
     9    5    6 1    
    10    5   65 1    
    11    5   71 1    
    12    6    7 1    
    13    6   72 1    
    14    6   73 1    
    15    7    8 1    
    16    8    9 1    
    17    8   74 1    
    18    8   75 1    
    19    9   10 ar   
    20    9   14 ar   
    21   10   11 ar   
    22   10   76 1    
    23   11   12 ar   
    24   11   48 1    
    25   12   13 ar   
    26   12   77 1    
    27   13   14 ar   
    28   13   15 1    
    29   14   78 1    
    30   15   16 1    
    31   15   79 1    
    32   15   80 1    
    33   16   17 1    
    34   17   18 1    
    35   17   81 1    
    36   17   82 1    
    37   18   19 1    
    38   18   22 1    
    39   18   83 1    
    40   19   20 am   BACKBONE|DICT|INTERRES
    41   19   21 2    
    42   20   84 1    
    43   20   85 1    
    44   22   23 am   BACKBONE|DICT|INTERRES
    45   22   86 1    
    46   23   24 2    
    47   23   25 1    
    48   25   26 1    
    49   25   27 1    
    50   25   87 1    
    51   26   88 1    
    52   26   89 1    
    53   26   90 1    
    54   27   28 am   BACKBONE|DICT|INTERRES
    55   27   91 1    
    56   28   29 2    
    57   28   30 1    
    58   30   31 1    
    59   30   32 1    
    60   30   92 1    
    61   31   93 1    
    62   31   94 1    
    63   31   95 1    
    64   32   33 am   BACKBONE|DICT|INTERRES
    65   32   96 1    
    66   33   34 2    
    67   33   35 1    
    68   35   36 1    
    69   35   37 1    
    70   35   97 1    
    71   36   98 1    
    72   36   99 1    
    73   36  100 1    
    74   37   38 am   BACKBONE|DICT|INTERRES
    75   37  101 1    
    76   38   39 2    
    77   38   40 1    
    78   40   41 1    
    79   40   42 1    
    80   40  102 1    
    81   41  103 1    
    82   41  104 1    
    83   41  105 1    
    84   42   43 am   BACKBONE|DICT|INTERRES
    85   42  106 1    
    86   43   44 2    
    87   43   45 1    
    88   45   46 1    
    89   45   49 1    
    90   45  107 1    
    91   46   47 1    
    92   46  108 1    
    93   46  109 1    
    94   47   48 1    
    95   48  110 1    
    96   48  111 1    
    97   49   50 am   BACKBONE|DICT|INTERRES
    98   49  112 1    
    99   50   51 2    
   100   50   52 1    
   101   52   53 1    
   102   52   54 1    
   103   52  113 1    
   104   53  114 1    
   105   53  115 1    
   106   53  116 1    
   107   54   55 am   BACKBONE|DICT|INTERRES
   108   54  117 1    
   109   55   56 2    
   110   55   57 1    
   111   57   58 1    
   112   57   59 1    
   113   57  118 1    
   114   58  119 1    
   115   58  120 1    
   116   58  121 1    
   117   59   60 am   BACKBONE|DICT|INTERRES
   118   59  122 1    
   119   60   61 2    
   120   60   62 1    
   121   62   63 1    
   122   62   64 1    
   123   62  123 1    
   124   63  124 1    
   125   63  125 1    
   126   63  126 1    
   127   64   65 am   BACKBONE|DICT|INTERRES
   128   64  127 1    
   129   65   66 2    
@<TRIPOS>SUBSTRUCTURE
     1 UNK         1 GROUP             0       ****    0 ROOT    
