@<TRIPOS>MOLECULE
3R135
127   129    1
SMALL
USER_CHARGES


@<TRIPOS>ATOM
      1 CA        -75.8900   24.1922  -69.3423 C.3       0 UNK        -0.1998 
      2 C         -77.3287   24.2699  -69.8315 C.2       0 UNK         0.4909 
      3 O         -78.2366   23.7969  -69.1467 O.2       0 UNK        -0.5240 
      4 N         -77.5422   24.8723  -71.0074 N.am      1 UNK        -0.4739 
      5 CA        -78.8468   24.9787  -71.6673 C.3       1 UNK         0.0864 
      6 C6        -78.8378   26.1071  -72.7304 C.3       11 UNK        -0.0881 
      7 S7        -80.4806   26.8674  -72.9505 S.3       11 UNK        -0.2682 
      8 C8        -80.3902   28.2802  -71.8017 C.3       11 UNK         0.0289 
      9 C9        -79.3888   29.3273  -72.2667 C.ar      11 UNK        -0.0687 
     10 C10       -79.6736   30.1185  -73.3817 C.ar      11 UNK        -0.0823 
     11 C11       -78.7467   31.0575  -73.8439 C.ar      11 UNK        -0.0830 
     12 C12       -77.5293   31.2099  -73.1737 C.ar      11 UNK        -0.1021 
     13 C13       -77.2437   30.4412  -72.0406 C.ar      11 UNK        -0.0753 
     14 C14       -78.1784   29.5042  -71.5897 C.ar      11 UNK        -0.0933 
     15 C15       -75.9288   30.6254  -71.2992 C.3       11 UNK         0.0166 
     16 S16       -74.8286   29.2051  -71.5637 S.3       11 UNK        -0.2615 
     17 C17       -73.2365   29.8754  -70.9734 C.3       11 UNK        -0.0865 
     18 CA        -72.3884   30.4750  -72.1250 C.3       10 UNK         0.0862 
     19 C         -71.0544   31.0572  -71.5855 C.2       10 UNK         0.5551 
     20 N         -71.0445   32.3255  -71.1989 N.am      10 UNK        -0.7319 
     21 O         -70.0466   30.3614  -71.4724 O.2       10 UNK        -0.5018 
     22 N         -72.1870   29.4953  -73.1986 N.am      10 UNK        -0.4509 
     23 C         -71.7345   29.7534  -74.4279 C.2       10 UNK         0.4899 
     24 O         -71.4067   30.8761  -74.8136 O.2       10 UNK        -0.4839 
     25 CA        -71.6672   28.5759  -75.4188 C.3       9 UNK         0.0222 
     26 CB        -70.2644   27.9384  -75.4343 C.3       9 UNK        -0.1966 
     27 N         -72.7233   27.5640  -75.2530 N.am      9 UNK        -0.4218 
     28 C         -72.9034   26.6724  -74.2662 C.2       9 UNK         0.5020 
     29 O         -72.1869   26.6009  -73.2670 O.2       9 UNK        -0.5274 
     30 CA        -74.0922   25.7033  -74.3978 C.3       8 UNK         0.0270 
     31 CB        -75.3234   26.2387  -73.6552 C.3       8 UNK        -0.1976 
     32 N         -74.4603   25.4069  -75.7835 N.am      8 UNK        -0.4313 
     33 C         -73.7161   24.6698  -76.6209 C.2       8 UNK         0.5041 
     34 O         -72.6438   24.1486  -76.3118 O.2       8 UNK        -0.5577 
     35 CA        -74.2580   24.4823  -78.0442 C.3       7 UNK         0.0284 
     36 CB        -75.3055   23.3632  -78.0771 C.3       7 UNK        -0.1958 
     37 N         -74.8475   25.7171  -78.5594 N.am      7 UNK        -0.4454 
     38 C         -74.1372   26.7098  -79.1096 C.2       7 UNK         0.5089 
     39 O         -72.9205   26.6667  -79.2929 O.2       7 UNK        -0.5125 
     40 CA        -74.9135   27.9710  -79.5218 C.3       6 UNK         0.0408 
     41 CB        -75.4112   27.8458  -80.9705 C.3       6 UNK        -0.1791 
     42 N         -76.0456   28.2794  -78.6441 N.am      6 UNK        -0.4762 
     43 C         -75.9394   28.6450  -77.3579 C.2       6 UNK         0.5007 
     44 O         -74.8747   28.6972  -76.7442 O.2       6 UNK        -0.5032 
     45 CA        -77.2545   29.0064  -76.6432 C.3       5 UNK         0.0783 
     46 C46       -77.6646   30.4551  -77.0302 C.3       11 UNK        -0.0857 
     47 S47       -79.3616   30.9258  -76.5470 S.3       11 UNK        -0.2512 
     48 C48       -79.0793   31.9222  -75.0506 C.3       11 UNK         0.0225 
     49 N         -78.3321   28.0374  -76.8779 N.am      5 UNK        -0.4615 
     50 C         -78.2925   26.7116  -76.6899 C.2       4 UNK         0.5053 
     51 O         -77.2671   26.0782  -76.4219 O.2       4 UNK        -0.5105 
     52 CA        -79.6600   26.0103  -76.7825 C.3       4 UNK         0.0263 
     53 CB        -80.3337   26.2170  -78.1576 C.3       4 UNK        -0.1981 
     54 N         -79.6183   24.5942  -76.3960 N.am      4 UNK        -0.4224 
     55 C         -79.1595   23.5428  -77.0926 C.2       3 UNK         0.4895 
     56 O         -78.7207   23.6131  -78.2410 O.2       3 UNK        -0.5091 
     57 CA        -79.2042   22.1637  -76.3993 C.3       3 UNK         0.0250 
     58 CB        -77.8166   21.5004  -76.3787 C.3       3 UNK        -0.1996 
     59 N         -79.7059   22.2185  -75.0240 N.am      3 UNK        -0.4254 
     60 C         -80.9889   22.1800  -74.6489 C.2       2 UNK         0.5004 
     61 O         -81.9272   22.0654  -75.4371 O.2       2 UNK        -0.5226 
     62 CA        -81.2789   22.3297  -73.1431 C.3       2 UNK         0.0269 
     63 CB        -81.0351   21.0054  -72.3926 C.3       2 UNK        -0.1926 
     64 N         -80.5811   23.4580  -72.5005 N.am      2 UNK        -0.4687 
     65 C         -79.2673   23.6301  -72.2886 C.2       1 UNK         0.5165 
     66 O         -78.4052   22.8116  -72.6209 O.2       1 UNK        -0.5079 
     67 H67       -75.5886   23.1511  -69.2295 H         1 UNK         0.0900 
     68 H68       -75.7962   24.6816  -68.3732 H         1 UNK         0.0900 
     69 H69       -75.1972   24.6731  -70.0328 H         1 UNK         0.0900 
     70 H70       -76.7525   25.2066  -71.5383 H         1 UNK         0.2959 
     71 H71       -79.5736   25.2296  -70.8907 H         1 UNK         0.1079 
     72 H72       -78.4892   25.7459  -73.6996 H         1 UNK         0.0837 
     73 H73       -78.1306   26.8883  -72.4524 H         1 UNK         0.0837 
     74 H74       -80.1416   27.9185  -70.8027 H         1 UNK         0.0685 
     75 H75       -81.3779   28.7369  -71.7254 H         1 UNK         0.0685 
     76 H76       -80.6134   29.9906  -73.9017 H         1 UNK         0.1434 
     77 H77       -76.8083   31.9352  -73.5257 H         1 UNK         0.1329 
     78 H78       -77.9517   28.9013  -70.7209 H         1 UNK         0.1335 
     79 H79       -75.4296   31.5372  -71.6309 H         1 UNK         0.0680 
     80 H80       -76.1193   30.7440  -70.2315 H         1 UNK         0.0680 
     81 H81       -72.6914   29.0661  -70.4836 H         1 UNK         0.1032 
     82 H82       -73.4246   30.6224  -70.1997 H         1 UNK         0.1032 
     83 H83       -72.9566   31.3003  -72.5594 H         1 UNK         0.0461 
     84 H84       -71.8671   32.9029  -71.2795 H         1 UNK         0.3453 
     85 H85       -70.1924   32.7184  -70.8301 H         1 UNK         0.3453 
     86 H86       -72.3707   28.5260  -72.9633 H         1 UNK         0.2984 
     87 H87       -71.8406   29.0002  -76.4091 H         1 UNK         0.0554 
     88 H88       -69.5046   28.6799  -75.6841 H         1 UNK         0.0847 
     89 H89       -70.1988   27.1429  -76.1767 H         1 UNK         0.0847 
     90 H90       -69.9960   27.5173  -74.4650 H         1 UNK         0.0847 
     91 H91       -73.4612   27.6272  -75.9497 H         1 UNK         0.3141 
     92 H92       -73.7974   24.7644  -73.9242 H         1 UNK         0.0743 
     93 H93       -75.0981   26.4106  -72.6025 H         1 UNK         0.0784 
     94 H94       -75.6742   27.1821  -74.0767 H         1 UNK         0.0784 
     95 H95       -76.1416   25.5217  -73.7033 H         1 UNK         0.0784 
     96 H96       -75.3620   25.7535  -76.1022 H         1 UNK         0.3213 
     97 H97       -73.4261   24.1853  -78.6871 H         1 UNK         0.0855 
     98 H98       -76.1587   23.6097  -77.4468 H         1 UNK         0.0814 
     99 H99       -74.8881   22.4232  -77.7141 H         1 UNK         0.0814 
    100 H100      -75.6751   23.1891  -79.0878 H         1 UNK         0.0814 
    101 H101      -75.8387   25.8527  -78.4117 H         1 UNK         0.3105 
    102 H102      -74.2190   28.8126  -79.4739 H         1 UNK         0.0547 
    103 H103      -74.5833   27.6390  -81.6503 H         1 UNK         0.0837 
    104 H104      -76.1336   27.0362  -81.0824 H         1 UNK         0.0837 
    105 H105      -75.8829   28.7678  -81.3104 H         1 UNK         0.0837 
    106 H106      -76.9673   28.2469  -79.0563 H         1 UNK         0.3020 
    107 H107      -77.0533   28.9873  -75.5694 H         1 UNK         0.1245 
    108 H108      -77.6138   30.5937  -78.1123 H         1 UNK         0.0781 
    109 H109      -76.9555   31.1704  -76.6089 H         1 UNK         0.0781 
    110 H110      -79.9855   32.4895  -74.8336 H         1 UNK         0.0836 
    111 H111      -78.2982   32.6598  -75.2412 H         1 UNK         0.0836 
    112 H112      -79.2258   28.4613  -77.0828 H         1 UNK         0.3022 
    113 H113      -80.2959   26.4866  -76.0347 H         1 UNK         0.0747 
    114 H114      -81.2624   25.6511  -78.2330 H         1 UNK         0.0793 
    115 H115      -79.6869   25.9096  -78.9799 H         1 UNK         0.0793 
    116 H116      -80.5863   27.2646  -78.3234 H         1 UNK         0.0793 
    117 H117      -79.9368   24.4014  -75.4584 H         1 UNK         0.3047 
    118 H118      -79.8700   21.5336  -76.9927 H         1 UNK         0.0822 
    119 H119      -77.8623   20.5028  -75.9418 H         1 UNK         0.0807 
    120 H120      -77.0997   22.0850  -75.8008 H         1 UNK         0.0807 
    121 H121      -77.4187   21.3887  -77.3880 H         1 UNK         0.0807 
    122 H122      -79.0143   22.3258  -74.2843 H         1 UNK         0.2946 
    123 H123      -82.3437   22.5557  -73.0587 H         1 UNK         0.1144 
    124 H124      -81.6377   20.2021  -72.8186 H         1 UNK         0.0793 
    125 H125      -81.3076   21.0909  -71.3407 H         1 UNK         0.0793 
    126 H126      -79.9935   20.6874  -72.4436 H         1 UNK         0.0793 
    127 H127      -81.1878   24.2236  -72.2364 H         1 UNK         0.2896 
@<TRIPOS>BOND
     1    1    2 1    
     2    1   67 1    
     3    1   68 1    
     4    1   69 1    
     5    2    3 2    
     6    2    4 am   BACKBONE|DICT|INTERRES
     7    4    5 1    
     8    4   70 1    
     9    5    6 1    
    10    5   65 1    
    11    5   71 1    
    12    6    7 1    
    13    6   72 1    
    14    6   73 1    
    15    7    8 1    
    16    8    9 1    
    17    8   74 1    
    18    8   75 1    
    19    9   10 ar   
    20    9   14 ar   
    21   10   11 ar   
    22   10   76 1    
    23   11   12 ar   
    24   11   48 1    
    25   12   13 ar   
    26   12   77 1    
    27   13   14 ar   
    28   13   15 1    
    29   14   78 1    
    30   15   16 1    
    31   15   79 1    
    32   15   80 1    
    33   16   17 1    
    34   17   18 1    
    35   17   81 1    
    36   17   82 1    
    37   18   19 1    
    38   18   22 1    
    39   18   83 1    
    40   19   20 am   BACKBONE|DICT|INTERRES
    41   19   21 2    
    42   20   84 1    
    43   20   85 1    
    44   22   23 am   BACKBONE|DICT|INTERRES
    45   22   86 1    
    46   23   24 2    
    47   23   25 1    
    48   25   26 1    
    49   25   27 1    
    50   25   87 1    
    51   26   88 1    
    52   26   89 1    
    53   26   90 1    
    54   27   28 am   BACKBONE|DICT|INTERRES
    55   27   91 1    
    56   28   29 2    
    57   28   30 1    
    58   30   31 1    
    59   30   32 1    
    60   30   92 1    
    61   31   93 1    
    62   31   94 1    
    63   31   95 1    
    64   32   33 am   BACKBONE|DICT|INTERRES
    65   32   96 1    
    66   33   34 2    
    67   33   35 1    
    68   35   36 1    
    69   35   37 1    
    70   35   97 1    
    71   36   98 1    
    72   36   99 1    
    73   36  100 1    
    74   37   38 am   BACKBONE|DICT|INTERRES
    75   37  101 1    
    76   38   39 2    
    77   38   40 1    
    78   40   41 1    
    79   40   42 1    
    80   40  102 1    
    81   41  103 1    
    82   41  104 1    
    83   41  105 1    
    84   42   43 am   BACKBONE|DICT|INTERRES
    85   42  106 1    
    86   43   44 2    
    87   43   45 1    
    88   45   46 1    
    89   45   49 1    
    90   45  107 1    
    91   46   47 1    
    92   46  108 1    
    93   46  109 1    
    94   47   48 1    
    95   48  110 1    
    96   48  111 1    
    97   49   50 am   BACKBONE|DICT|INTERRES
    98   49  112 1    
    99   50   51 2    
   100   50   52 1    
   101   52   53 1    
   102   52   54 1    
   103   52  113 1    
   104   53  114 1    
   105   53  115 1    
   106   53  116 1    
   107   54   55 am   BACKBONE|DICT|INTERRES
   108   54  117 1    
   109   55   56 2    
   110   55   57 1    
   111   57   58 1    
   112   57   59 1    
   113   57  118 1    
   114   58  119 1    
   115   58  120 1    
   116   58  121 1    
   117   59   60 am   BACKBONE|DICT|INTERRES
   118   59  122 1    
   119   60   61 2    
   120   60   62 1    
   121   62   63 1    
   122   62   64 1    
   123   62  123 1    
   124   63  124 1    
   125   63  125 1    
   126   63  126 1    
   127   64   65 am   BACKBONE|DICT|INTERRES
   128   64  127 1    
   129   65   66 2    
@<TRIPOS>SUBSTRUCTURE
     1 UNK         1 GROUP             0       ****    0 ROOT    
