@<TRIPOS>MOLECULE
3R135
127   129    1
SMALL
USER_CHARGES


@<TRIPOS>ATOM
      1 CA        -85.2637   28.6597  -72.5545 C.3       0 UNK        -0.1998 
      2 C         -84.6049   28.2730  -73.8699 C.2       0 UNK         0.4909 
      3 O         -85.1846   27.5110  -74.6442 O.2       0 UNK        -0.5240 
      4 N         -83.4001   28.7974  -74.1290 N.am      1 UNK        -0.4739 
      5 CA        -82.5835   28.5108  -75.3161 C.3       1 UNK         0.0864 
      6 C6        -81.4364   29.5398  -75.4999 C.3       11 UNK        -0.0881 
      7 S7        -80.4964   29.8871  -73.9705 S.3       11 UNK        -0.2682 
      8 C8        -78.8391   29.3040  -74.4229 C.3       11 UNK         0.0289 
      9 C9        -77.9412   29.2446  -73.2004 C.ar      11 UNK        -0.0687 
     10 C10       -77.7820   28.0365  -72.5207 C.ar      11 UNK        -0.0823 
     11 C11       -76.9708   27.9597  -71.3859 C.ar      11 UNK        -0.0830 
     12 C12       -76.3249   29.1120  -70.9243 C.ar      11 UNK        -0.1021 
     13 C13       -76.4923   30.3335  -71.5856 C.ar      11 UNK        -0.0753 
     14 C14       -77.2924   30.3909  -72.7318 C.ar      11 UNK        -0.0933 
     15 C15       -75.8615   31.6046  -71.0335 C.3       11 UNK         0.0166 
     16 S16       -74.3425   32.0674  -71.9186 S.3       11 UNK        -0.2615 
     17 C17       -73.1006   31.0217  -71.0818 C.3       11 UNK        -0.0865 
     18 CA        -71.7236   31.0562  -71.8080 C.3       10 UNK         0.0862 
     19 C         -70.5846   30.3804  -70.9833 C.2       10 UNK         0.5551 
     20 N         -69.6048   29.7418  -71.6110 N.am      10 UNK        -0.7319 
     21 O         -70.5652   30.4679  -69.7577 O.2       10 UNK        -0.5018 
     22 N         -71.8257   30.6297  -73.2163 N.am      10 UNK        -0.4509 
     23 C         -72.1538   29.4042  -73.6452 C.2       10 UNK         0.4899 
     24 O         -72.3080   28.4359  -72.8980 O.2       10 UNK        -0.4839 
     25 CA        -72.4022   29.2541  -75.1580 C.3       9 UNK         0.0222 
     26 CB        -71.5656   30.2101  -76.0400 C.3       9 UNK        -0.1966 
     27 N         -72.2730   27.8637  -75.5957 N.am      9 UNK        -0.4218 
     28 C         -71.1601   27.1229  -75.6917 C.2       9 UNK         0.5020 
     29 O         -70.0232   27.5390  -75.4612 O.2       9 UNK        -0.5274 
     30 CA        -71.3456   25.6586  -76.1353 C.3       8 UNK         0.0270 
     31 CB        -71.4757   24.7401  -74.9096 C.3       8 UNK        -0.1976 
     32 N         -72.5029   25.4596  -77.0147 N.am      8 UNK        -0.4313 
     33 C         -72.6127   25.9470  -78.2594 C.2       8 UNK         0.5041 
     34 O         -71.7141   26.5581  -78.8393 O.2       8 UNK        -0.5577 
     35 CA        -73.9573   25.7338  -78.9728 C.3       7 UNK         0.0284 
     36 CB        -74.0280   24.3380  -79.6145 C.3       7 UNK        -0.1958 
     37 N         -75.0931   25.9272  -78.0678 N.am      7 UNK        -0.4454 
     38 C         -75.5708   27.1255  -77.7010 C.2       7 UNK         0.5089 
     39 O         -75.1338   28.1962  -78.1229 O.2       7 UNK        -0.5125 
     40 CA        -76.7375   27.1354  -76.6937 C.3       6 UNK         0.0408 
     41 CB        -78.0716   27.0346  -77.4540 C.3       6 UNK        -0.1791 
     42 N         -76.6658   26.0715  -75.6842 N.am      6 UNK        -0.4762 
     43 C         -75.6493   25.8923  -74.8243 C.2       6 UNK         0.5007 
     44 O         -74.6837   26.6491  -74.7579 O.2       6 UNK        -0.5032 
     45 CA        -75.6487   24.5945  -73.9862 C.3       5 UNK         0.0783 
     46 C46       -76.4570   24.7088  -72.6731 C.3       11 UNK        -0.0857 
     47 S47       -75.5388   25.5812  -71.3595 S.3       11 UNK        -0.2512 
     48 C48       -76.8255   26.6445  -70.6347 C.3       11 UNK         0.0225 
     49 N         -76.0859   23.4438  -74.7776 N.am      5 UNK        -0.4615 
     50 C         -75.4622   22.9627  -75.8578 C.2       4 UNK         0.5053 
     51 O         -74.3988   23.4151  -76.2801 O.2       4 UNK        -0.5105 
     52 CA        -76.1656   21.8387  -76.6394 C.3       4 UNK         0.0263 
     53 CB        -75.9067   20.4615  -75.9985 C.3       4 UNK        -0.1981 
     54 N         -77.5993   22.0886  -76.8649 N.am      4 UNK        -0.4224 
     55 C         -78.5916   22.1348  -75.9640 C.2       3 UNK         0.4895 
     56 O         -78.4567   21.8665  -74.7673 O.2       3 UNK        -0.5091 
     57 CA        -79.9619   22.5836  -76.4963 C.3       3 UNK         0.0250 
     58 CB        -80.7818   21.3669  -76.9554 C.3       3 UNK        -0.1996 
     59 N         -80.7376   23.3396  -75.5085 N.am      3 UNK        -0.4254 
     60 C         -80.3615   24.4892  -74.9288 C.2       2 UNK         0.5004 
     61 O         -79.2819   25.0504  -75.1301 O.2       2 UNK        -0.5226 
     62 CA        -81.3648   25.1048  -73.9362 C.3       2 UNK         0.0269 
     63 CB        -80.8480   24.9593  -72.4953 C.3       2 UNK        -0.1926 
     64 N         -81.6847   26.5153  -74.1917 N.am      2 UNK        -0.4687 
     65 C         -82.0923   27.0465  -75.3564 C.2       1 UNK         0.5165 
     66 O         -82.1581   26.4243  -76.4176 O.2       1 UNK        -0.5079 
     67 H67       -85.4459   27.7710  -71.9509 H         1 UNK         0.0900 
     68 H68       -86.2203   29.1464  -72.7428 H         1 UNK         0.0900 
     69 H69       -84.6443   29.3430  -71.9736 H         1 UNK         0.0900 
     70 H70       -82.9702   29.4208  -73.4591 H         1 UNK         0.2959 
     71 H71       -83.2434   28.6202  -76.1803 H         1 UNK         0.1079 
     72 H72       -80.7621   29.2358  -76.3032 H         1 UNK         0.0837 
     73 H73       -81.8636   30.4879  -75.8302 H         1 UNK         0.0837 
     74 H74       -78.9214   28.3118  -74.8659 H         1 UNK         0.0685 
     75 H75       -78.4081   29.9584  -75.1820 H         1 UNK         0.0685 
     76 H76       -78.3039   27.1618  -72.8783 H         1 UNK         0.1434 
     77 H77       -75.7096   29.0629  -70.0363 H         1 UNK         0.1329 
     78 H78       -77.4302   31.3329  -73.2449 H         1 UNK         0.1335 
     79 H79       -75.6507   31.5027  -69.9677 H         1 UNK         0.0680 
     80 H80       -76.5759   32.4247  -71.1206 H         1 UNK         0.0680 
     81 H81       -73.4720   29.9980  -71.0150 H         1 UNK         0.1032 
     82 H82       -73.0055   31.3801  -70.0552 H         1 UNK         0.1032 
     83 H83       -71.4206   32.1028  -71.8561 H         1 UNK         0.0461 
     84 H84       -68.8649   29.3178  -71.0742 H         1 UNK         0.3453 
     85 H85       -69.6178   29.6550  -72.6148 H         1 UNK         0.3453 
     86 H86       -71.7072   31.3625  -73.8999 H         1 UNK         0.2984 
     87 H87       -73.4530   29.5034  -75.3125 H         1 UNK         0.0554 
     88 H88       -71.7090   29.9928  -77.0987 H         1 UNK         0.0847 
     89 H89       -70.4985   30.1338  -75.8280 H         1 UNK         0.0847 
     90 H90       -71.8584   31.2496  -75.8908 H         1 UNK         0.0847 
     91 H91       -73.1572   27.3637  -75.6475 H         1 UNK         0.3141 
     92 H92       -70.4522   25.3651  -76.6902 H         1 UNK         0.0743 
     93 H93       -72.3370   25.0089  -74.2975 H         1 UNK         0.0784 
     94 H94       -71.5828   23.6953  -75.2025 H         1 UNK         0.0784 
     95 H95       -70.5916   24.8120  -74.2747 H         1 UNK         0.0784 
     96 H96       -73.2652   24.8940  -76.6486 H         1 UNK         0.3213 
     97 H97       -74.0261   26.4717  -79.7755 H         1 UNK         0.0855 
     98 H98       -73.9409   23.5406  -78.8767 H         1 UNK         0.0814 
     99 H99       -73.2181   24.2023  -80.3325 H         1 UNK         0.0814 
    100 H100      -74.9644   24.1962  -80.1543 H         1 UNK         0.0814 
    101 H101      -75.4851   25.1022  -77.6383 H         1 UNK         0.3105 
    102 H102      -76.7087   28.0901  -76.1652 H         1 UNK         0.0547 
    103 H103      -78.1643   27.8363  -78.1879 H         1 UNK         0.0837 
    104 H104      -78.1578   26.0895  -77.9913 H         1 UNK         0.0837 
    105 H105      -78.9299   27.1100  -76.7885 H         1 UNK         0.0837 
    106 H106      -77.4768   25.4603  -75.6129 H         1 UNK         0.3020 
    107 H107      -74.6082   24.3948  -73.7211 H         1 UNK         0.1245 
    108 H108      -76.6669   23.7121  -72.2811 H         1 UNK         0.0781 
    109 H109      -77.4339   25.1562  -72.8508 H         1 UNK         0.0781 
    110 H110      -76.5638   26.8409  -69.5938 H         1 UNK         0.0836 
    111 H111      -77.7785   26.1138  -70.6062 H         1 UNK         0.0836 
    112 H112      -76.9697   23.0117  -74.5203 H         1 UNK         0.3022 
    113 H113      -75.7121   21.8221  -77.6320 H         1 UNK         0.0747 
    114 H114      -76.3694   19.6622  -76.5774 H         1 UNK         0.0793 
    115 H115      -74.8372   20.2518  -75.9534 H         1 UNK         0.0793 
    116 H116      -76.2885   20.4013  -74.9791 H         1 UNK         0.0793 
    117 H117      -77.8342   22.3259  -77.8193 H         1 UNK         0.3047 
    118 H118      -79.8029   23.2434  -77.3520 H         1 UNK         0.0822 
    119 H119      -81.7335   21.6699  -77.3925 H         1 UNK         0.0807 
    120 H120      -80.2465   20.7962  -77.7157 H         1 UNK         0.0807 
    121 H121      -80.9922   20.6880  -76.1278 H         1 UNK         0.0807 
    122 H122      -81.6286   22.9411  -75.2518 H         1 UNK         0.2946 
    123 H123      -82.3055   24.5557  -74.0142 H         1 UNK         0.1144 
    124 H124      -80.6085   23.9192  -72.2686 H         1 UNK         0.0793 
    125 H125      -81.5936   25.2841  -71.7695 H         1 UNK         0.0793 
    126 H126      -79.9427   25.5432  -72.3309 H         1 UNK         0.0793 
    127 H127      -81.6603   27.1301  -73.3915 H         1 UNK         0.2896 
@<TRIPOS>BOND
     1    1    2 1    
     2    1   67 1    
     3    1   68 1    
     4    1   69 1    
     5    2    3 2    
     6    2    4 am   BACKBONE|DICT|INTERRES
     7    4    5 1    
     8    4   70 1    
     9    5    6 1    
    10    5   65 1    
    11    5   71 1    
    12    6    7 1    
    13    6   72 1    
    14    6   73 1    
    15    7    8 1    
    16    8    9 1    
    17    8   74 1    
    18    8   75 1    
    19    9   10 ar   
    20    9   14 ar   
    21   10   11 ar   
    22   10   76 1    
    23   11   12 ar   
    24   11   48 1    
    25   12   13 ar   
    26   12   77 1    
    27   13   14 ar   
    28   13   15 1    
    29   14   78 1    
    30   15   16 1    
    31   15   79 1    
    32   15   80 1    
    33   16   17 1    
    34   17   18 1    
    35   17   81 1    
    36   17   82 1    
    37   18   19 1    
    38   18   22 1    
    39   18   83 1    
    40   19   20 am   BACKBONE|DICT|INTERRES
    41   19   21 2    
    42   20   84 1    
    43   20   85 1    
    44   22   23 am   BACKBONE|DICT|INTERRES
    45   22   86 1    
    46   23   24 2    
    47   23   25 1    
    48   25   26 1    
    49   25   27 1    
    50   25   87 1    
    51   26   88 1    
    52   26   89 1    
    53   26   90 1    
    54   27   28 am   BACKBONE|DICT|INTERRES
    55   27   91 1    
    56   28   29 2    
    57   28   30 1    
    58   30   31 1    
    59   30   32 1    
    60   30   92 1    
    61   31   93 1    
    62   31   94 1    
    63   31   95 1    
    64   32   33 am   BACKBONE|DICT|INTERRES
    65   32   96 1    
    66   33   34 2    
    67   33   35 1    
    68   35   36 1    
    69   35   37 1    
    70   35   97 1    
    71   36   98 1    
    72   36   99 1    
    73   36  100 1    
    74   37   38 am   BACKBONE|DICT|INTERRES
    75   37  101 1    
    76   38   39 2    
    77   38   40 1    
    78   40   41 1    
    79   40   42 1    
    80   40  102 1    
    81   41  103 1    
    82   41  104 1    
    83   41  105 1    
    84   42   43 am   BACKBONE|DICT|INTERRES
    85   42  106 1    
    86   43   44 2    
    87   43   45 1    
    88   45   46 1    
    89   45   49 1    
    90   45  107 1    
    91   46   47 1    
    92   46  108 1    
    93   46  109 1    
    94   47   48 1    
    95   48  110 1    
    96   48  111 1    
    97   49   50 am   BACKBONE|DICT|INTERRES
    98   49  112 1    
    99   50   51 2    
   100   50   52 1    
   101   52   53 1    
   102   52   54 1    
   103   52  113 1    
   104   53  114 1    
   105   53  115 1    
   106   53  116 1    
   107   54   55 am   BACKBONE|DICT|INTERRES
   108   54  117 1    
   109   55   56 2    
   110   55   57 1    
   111   57   58 1    
   112   57   59 1    
   113   57  118 1    
   114   58  119 1    
   115   58  120 1    
   116   58  121 1    
   117   59   60 am   BACKBONE|DICT|INTERRES
   118   59  122 1    
   119   60   61 2    
   120   60   62 1    
   121   62   63 1    
   122   62   64 1    
   123   62  123 1    
   124   63  124 1    
   125   63  125 1    
   126   63  126 1    
   127   64   65 am   BACKBONE|DICT|INTERRES
   128   64  127 1    
   129   65   66 2    
@<TRIPOS>SUBSTRUCTURE
     1 UNK         1 GROUP             0       ****    0 ROOT    
