@<TRIPOS>MOLECULE
3R135
127   129    1
SMALL
USER_CHARGES


@<TRIPOS>ATOM
      1 CA        -82.0402   21.8156  -72.4902 C.3       0 UNK        -0.1998 
      2 C         -81.2707   23.1253  -72.5616 C.2       0 UNK         0.4909 
      3 O         -80.1260   23.1330  -73.0155 O.2       0 UNK        -0.5240 
      4 N         -81.8983   24.2321  -72.1335 N.am      1 UNK        -0.4739 
      5 CA        -81.3372   25.5913  -72.0975 C.3       1 UNK         0.0864 
      6 C6        -80.2624   25.7399  -70.9849 C.3       11 UNK        -0.0881 
      7 S7        -79.9314   27.4761  -70.5154 S.3       11 UNK        -0.2682 
      8 C8        -78.1433   27.6181  -70.8636 C.3       11 UNK         0.0289 
      9 C9        -77.7612   28.9317  -71.5322 C.ar      11 UNK        -0.0687 
     10 C10       -78.4615   29.3802  -72.6538 C.ar      11 UNK        -0.0823 
     11 C11       -78.0734   30.5428  -73.3203 C.ar      11 UNK        -0.0830 
     12 C12       -76.9727   31.2648  -72.8520 C.ar      11 UNK        -0.1021 
     13 C13       -76.2566   30.8362  -71.7283 C.ar      11 UNK        -0.0753 
     14 C14       -76.6642   29.6660  -71.0710 C.ar      11 UNK        -0.0933 
     15 C15       -75.0588   31.6748  -71.2765 C.3       11 UNK         0.0166 
     16 S16       -73.9198   30.8687  -70.0919 S.3       11 UNK        -0.2615 
     17 C17       -72.3098   31.5011  -70.6788 C.3       11 UNK        -0.0865 
     18 CA        -71.4977   30.5475  -71.6105 C.3       10 UNK         0.0862 
     19 C         -70.6309   29.4712  -70.8847 C.2       10 UNK         0.5551 
     20 N         -70.1281   28.4665  -71.5942 N.am      10 UNK        -0.7319 
     21 O         -70.3726   29.5635  -69.6868 O.2       10 UNK        -0.5018 
     22 N         -72.2430   30.0840  -72.7975 N.am      10 UNK        -0.4509 
     23 C         -73.0260   28.9974  -72.9034 C.2       10 UNK         0.4899 
     24 O         -73.3051   28.2360  -71.9765 O.2       10 UNK        -0.4839 
     25 CA        -73.5618   28.6624  -74.3076 C.3       9 UNK         0.0222 
     26 CB        -73.4595   29.8220  -75.3232 C.3       9 UNK        -0.1966 
     27 N         -72.9412   27.4459  -74.8486 N.am      9 UNK        -0.4218 
     28 C         -71.6274   27.1866  -74.9572 C.2       9 UNK         0.5020 
     29 O         -70.7397   27.9850  -74.6480 O.2       9 UNK        -0.5274 
     30 CA        -71.2072   25.7928  -75.4565 C.3       8 UNK         0.0270 
     31 CB        -70.8074   24.9053  -74.2657 C.3       8 UNK        -0.1976 
     32 N         -72.2168   25.0900  -76.2518 N.am      8 UNK        -0.4313 
     33 C         -72.5606   25.3927  -77.5106 C.2       8 UNK         0.5041 
     34 O         -72.1081   26.3584  -78.1273 O.2       8 UNK        -0.5577 
     35 CA        -73.5413   24.4430  -78.2202 C.3       7 UNK         0.0284 
     36 CB        -73.7933   23.1166  -77.4727 C.3       7 UNK        -0.1958 
     37 N         -74.8165   25.1255  -78.4067 N.am      7 UNK        -0.4454 
     38 C         -75.3221   25.5372  -79.5757 C.2       7 UNK         0.5089 
     39 O         -74.7615   25.3710  -80.6603 O.2       7 UNK        -0.5125 
     40 CA        -76.6970   26.2375  -79.5523 C.3       6 UNK         0.0408 
     41 CB        -77.7726   25.3322  -80.1746 C.3       6 UNK        -0.1791 
     42 N         -77.1406   26.6399  -78.2156 N.am      6 UNK        -0.4762 
     43 C         -76.6125   27.6402  -77.4970 C.2       6 UNK         0.5007 
     44 O         -75.7126   28.3731  -77.9060 O.2       6 UNK        -0.5032 
     45 CA        -77.1620   27.8168  -76.0658 C.3       5 UNK         0.0783 
     46 C46       -78.4593   28.6656  -76.0784 C.3       11 UNK        -0.0857 
     47 S47       -78.1078   30.4572  -76.0990 S.3       11 UNK        -0.2512 
     48 C48       -78.8525   31.0235  -74.5360 C.3       11 UNK         0.0225 
     49 N         -77.3352   26.5318  -75.3687 N.am      5 UNK        -0.4615 
     50 C         -76.3623   25.6333  -75.1472 C.2       4 UNK         0.5053 
     51 O         -75.1841   25.8156  -75.4502 O.2       4 UNK        -0.5105 
     52 CA        -76.7620   24.2768  -74.5425 C.3       4 UNK         0.0263 
     53 CB        -76.7907   24.3346  -73.0119 C.3       4 UNK        -0.1981 
     54 N         -78.0477   23.7955  -75.0474 N.am      4 UNK        -0.4224 
     55 C         -78.2471   23.3813  -76.3071 C.2       3 UNK         0.4895 
     56 O         -77.3500   23.2651  -77.1414 O.2       3 UNK        -0.5091 
     57 CA        -79.6993   23.0981  -76.7217 C.3       3 UNK         0.0250 
     58 CB        -80.1400   21.6943  -76.2769 C.3       3 UNK        -0.1996 
     59 N         -80.6266   24.1069  -76.2024 N.am      3 UNK        -0.4254 
     60 C         -80.6362   25.3902  -76.5923 C.2       2 UNK         0.5004 
     61 O         -79.8953   25.8450  -77.4636 O.2       2 UNK        -0.5226 
     62 CA        -81.6130   26.3352  -75.8713 C.3       2 UNK         0.0269 
     63 CB        -82.9638   26.3702  -76.6030 C.3       2 UNK        -0.1926 
     64 N         -81.8303   25.9966  -74.4606 N.am      2 UNK        -0.4687 
     65 C         -80.8863   26.0407  -73.5080 C.2       1 UNK         0.5165 
     66 O         -79.7159   26.3513  -73.7334 O.2       1 UNK        -0.5079 
     67 H67       -82.1660   21.3992  -73.4891 H         1 UNK         0.0900 
     68 H68       -81.4913   21.0931  -71.8868 H         1 UNK         0.0900 
     69 H69       -83.0280   21.9454  -72.0485 H         1 UNK         0.0900 
     70 H70       -82.8452   24.1505  -71.7884 H         1 UNK         0.2959 
     71 H71       -82.1679   26.2471  -71.8305 H         1 UNK         0.1079 
     72 H72       -80.6134   25.2422  -70.0796 H         1 UNK         0.0837 
     73 H73       -79.3470   25.2161  -71.2554 H         1 UNK         0.0837 
     74 H74       -77.5964   27.4793  -69.9299 H         1 UNK         0.0685 
     75 H75       -77.8200   26.8228  -71.5302 H         1 UNK         0.0685 
     76 H76       -79.3102   28.8139  -73.0083 H         1 UNK         0.1434 
     77 H77       -76.6706   32.1658  -73.3689 H         1 UNK         0.1329 
     78 H78       -76.1231   29.3075  -70.2074 H         1 UNK         0.1335 
     79 H79       -75.4225   32.6019  -70.8318 H         1 UNK         0.0680 
     80 H80       -74.4978   31.9590  -72.1680 H         1 UNK         0.0680 
     81 H81       -72.4742   32.4471  -71.1961 H         1 UNK         0.1032 
     82 H82       -71.7180   31.7759  -69.8041 H         1 UNK         0.1032 
     83 H83       -70.7279   31.1881  -72.0425 H         1 UNK         0.0461 
     84 H84       -69.5556   27.7753  -71.1372 H         1 UNK         0.3453 
     85 H85       -70.3326   28.3867  -72.5833 H         1 UNK         0.3453 
     86 H86       -72.0510   30.5941  -73.6467 H         1 UNK         0.2984 
     87 H87       -74.6175   28.4334  -74.1672 H         1 UNK         0.0554 
     88 H88       -73.9510   30.7205  -74.9472 H         1 UNK         0.0847 
     89 H89       -73.9517   29.5609  -76.2595 H         1 UNK         0.0847 
     90 H90       -72.4261   30.0752  -75.5619 H         1 UNK         0.0847 
     91 H91       -73.5981   26.7130  -75.1110 H         1 UNK         0.3141 
     92 H92       -70.3252   25.9315  -76.0856 H         1 UNK         0.0743 
     93 H93       -70.0273   25.3805  -73.6689 H         1 UNK         0.0784 
     94 H94       -71.6525   24.7149  -73.6027 H         1 UNK         0.0784 
     95 H95       -70.4156   23.9440  -74.5989 H         1 UNK         0.0784 
     96 H96       -72.6638   24.2962  -75.8167 H         1 UNK         0.3213 
     97 H97       -73.0936   24.1977  -79.1855 H         1 UNK         0.0855 
     98 H98       -74.2772   23.2699  -76.5081 H         1 UNK         0.0814 
     99 H99       -72.8635   22.5713  -77.3045 H         1 UNK         0.0814 
    100 H100      -74.4429   22.4634  -78.0561 H         1 UNK         0.0814 
    101 H101      -75.3206   25.3563  -77.5595 H         1 UNK         0.3105 
    102 H102      -76.6135   27.1369  -80.1657 H         1 UNK         0.0547 
    103 H103      -78.7378   25.8367  -80.2223 H         1 UNK         0.0837 
    104 H104      -77.5051   25.0472  -81.1929 H         1 UNK         0.0837 
    105 H105      -77.9040   24.4133  -79.6022 H         1 UNK         0.0837 
    106 H106      -77.9250   26.1262  -77.8230 H         1 UNK         0.3020 
    107 H107      -76.4061   28.3617  -75.5004 H         1 UNK         0.1245 
    108 H108      -79.0681   28.4408  -75.2060 H         1 UNK         0.0781 
    109 H109      -79.0938   28.4235  -76.9331 H         1 UNK         0.0781 
    110 H110      -79.8910   30.6923  -74.4842 H         1 UNK         0.0836 
    111 H111      -78.8856   32.1141  -74.5395 H         1 UNK         0.0836 
    112 H112      -78.2635   26.3327  -75.0062 H         1 UNK         0.3022 
    113 H113      -75.9965   23.5538  -74.8299 H         1 UNK         0.0747 
    114 H114      -76.9109   23.3405  -72.5812 H         1 UNK         0.0793 
    115 H115      -75.8687   24.7587  -72.6113 H         1 UNK         0.0793 
    116 H116      -77.6182   24.9462  -72.6648 H         1 UNK         0.0793 
    117 H117      -78.8341   23.8155  -74.4034 H         1 UNK         0.3047 
    118 H118      -79.7434   23.1359  -77.8125 H         1 UNK         0.0822 
    119 H119      -79.4883   20.9313  -76.7047 H         1 UNK         0.0807 
    120 H120      -81.1554   21.4731  -76.6059 H         1 UNK         0.0807 
    121 H121      -80.1041   21.5786  -75.1937 H         1 UNK         0.0807 
    122 H122      -81.2450   23.8253  -75.4563 H         1 UNK         0.2946 
    123 H123      -81.1815   27.3371  -75.9097 H         1 UNK         0.1144 
    124 H124      -83.6354   27.1072  -76.1622 H         1 UNK         0.0793 
    125 H125      -83.4638   25.4011  -76.5780 H         1 UNK         0.0793 
    126 H126      -82.8320   26.6420  -77.6515 H         1 UNK         0.0793 
    127 H127      -82.7613   25.7019  -74.2023 H         1 UNK         0.2896 
@<TRIPOS>BOND
     1    1    2 1    
     2    1   67 1    
     3    1   68 1    
     4    1   69 1    
     5    2    3 2    
     6    2    4 am   BACKBONE|DICT|INTERRES
     7    4    5 1    
     8    4   70 1    
     9    5    6 1    
    10    5   65 1    
    11    5   71 1    
    12    6    7 1    
    13    6   72 1    
    14    6   73 1    
    15    7    8 1    
    16    8    9 1    
    17    8   74 1    
    18    8   75 1    
    19    9   10 ar   
    20    9   14 ar   
    21   10   11 ar   
    22   10   76 1    
    23   11   12 ar   
    24   11   48 1    
    25   12   13 ar   
    26   12   77 1    
    27   13   14 ar   
    28   13   15 1    
    29   14   78 1    
    30   15   16 1    
    31   15   79 1    
    32   15   80 1    
    33   16   17 1    
    34   17   18 1    
    35   17   81 1    
    36   17   82 1    
    37   18   19 1    
    38   18   22 1    
    39   18   83 1    
    40   19   20 am   BACKBONE|DICT|INTERRES
    41   19   21 2    
    42   20   84 1    
    43   20   85 1    
    44   22   23 am   BACKBONE|DICT|INTERRES
    45   22   86 1    
    46   23   24 2    
    47   23   25 1    
    48   25   26 1    
    49   25   27 1    
    50   25   87 1    
    51   26   88 1    
    52   26   89 1    
    53   26   90 1    
    54   27   28 am   BACKBONE|DICT|INTERRES
    55   27   91 1    
    56   28   29 2    
    57   28   30 1    
    58   30   31 1    
    59   30   32 1    
    60   30   92 1    
    61   31   93 1    
    62   31   94 1    
    63   31   95 1    
    64   32   33 am   BACKBONE|DICT|INTERRES
    65   32   96 1    
    66   33   34 2    
    67   33   35 1    
    68   35   36 1    
    69   35   37 1    
    70   35   97 1    
    71   36   98 1    
    72   36   99 1    
    73   36  100 1    
    74   37   38 am   BACKBONE|DICT|INTERRES
    75   37  101 1    
    76   38   39 2    
    77   38   40 1    
    78   40   41 1    
    79   40   42 1    
    80   40  102 1    
    81   41  103 1    
    82   41  104 1    
    83   41  105 1    
    84   42   43 am   BACKBONE|DICT|INTERRES
    85   42  106 1    
    86   43   44 2    
    87   43   45 1    
    88   45   46 1    
    89   45   49 1    
    90   45  107 1    
    91   46   47 1    
    92   46  108 1    
    93   46  109 1    
    94   47   48 1    
    95   48  110 1    
    96   48  111 1    
    97   49   50 am   BACKBONE|DICT|INTERRES
    98   49  112 1    
    99   50   51 2    
   100   50   52 1    
   101   52   53 1    
   102   52   54 1    
   103   52  113 1    
   104   53  114 1    
   105   53  115 1    
   106   53  116 1    
   107   54   55 am   BACKBONE|DICT|INTERRES
   108   54  117 1    
   109   55   56 2    
   110   55   57 1    
   111   57   58 1    
   112   57   59 1    
   113   57  118 1    
   114   58  119 1    
   115   58  120 1    
   116   58  121 1    
   117   59   60 am   BACKBONE|DICT|INTERRES
   118   59  122 1    
   119   60   61 2    
   120   60   62 1    
   121   62   63 1    
   122   62   64 1    
   123   62  123 1    
   124   63  124 1    
   125   63  125 1    
   126   63  126 1    
   127   64   65 am   BACKBONE|DICT|INTERRES
   128   64  127 1    
   129   65   66 2    
@<TRIPOS>SUBSTRUCTURE
     1 UNK         1 GROUP             0       ****    0 ROOT    
