@<TRIPOS>MOLECULE
3R135
127   129    1
SMALL
USER_CHARGES


@<TRIPOS>ATOM
      1 CA        -78.9210   25.9395  -70.9344 C.3       0 UNK        -0.1998 
      2 C         -79.9773   25.6346  -69.8790 C.2       0 UNK         0.4909 
      3 O         -79.6241   25.1346  -68.8131 O.2       0 UNK        -0.5240 
      4 N         -81.2758   25.8908  -70.1031 N.am      1 UNK        -0.4739 
      5 CA        -81.9564   26.4702  -71.2782 C.3       1 UNK         0.0864 
      6 C6        -81.3957   27.8332  -71.7751 C.3       11 UNK        -0.0881 
      7 S7        -81.1936   29.0958  -70.4719 S.3       11 UNK        -0.2682 
      8 C8        -81.1495   30.6285  -71.4616 C.3       11 UNK         0.0289 
      9 C9        -79.9109   30.7034  -72.3454 C.ar      11 UNK        -0.0687 
     10 C10       -79.9306   30.1458  -73.6275 C.ar      11 UNK        -0.0823 
     11 C11       -78.7824   30.1536  -74.4223 C.ar      11 UNK        -0.0830 
     12 C12       -77.6321   30.7980  -73.9632 C.ar      11 UNK        -0.1021 
     13 C13       -77.5929   31.3497  -72.6804 C.ar      11 UNK        -0.0753 
     14 C14       -78.7370   31.3032  -71.8757 C.ar      11 UNK        -0.0933 
     15 C15       -76.3041   31.9662  -72.1557 C.3       11 UNK         0.0166 
     16 S16       -75.3398   30.7798  -71.1611 S.3       11 UNK        -0.2615 
     17 C17       -74.6368   29.6672  -72.4304 C.3       11 UNK        -0.0865 
     18 CA        -73.1745   30.0314  -72.7957 C.3       10 UNK         0.0862 
     19 C         -72.1673   29.4698  -71.7543 C.2       10 UNK         0.5551 
     20 N         -71.6356   30.3122  -70.8794 N.am      10 UNK        -0.7319 
     21 O         -71.8991   28.2708  -71.7137 O.2       10 UNK        -0.5018 
     22 N         -72.8530   29.5944  -74.1611 N.am      10 UNK        -0.4509 
     23 C         -71.7606   29.9588  -74.8451 C.2       10 UNK         0.4899 
     24 O         -70.9441   30.7919  -74.4479 O.2       10 UNK        -0.4839 
     25 CA        -71.5612   29.2581  -76.2015 C.3       9 UNK         0.0222 
     26 CB        -70.2441   29.6425  -76.9086 C.3       9 UNK        -0.1966 
     27 N         -71.6986   27.8036  -76.0760 N.am      9 UNK        -0.4218 
     28 C         -70.9306   26.9601  -75.3681 C.2       9 UNK         0.5020 
     29 O         -69.9018   27.2861  -74.7748 O.2       9 UNK        -0.5274 
     30 CA        -71.3970   25.4937  -75.2979 C.3       8 UNK         0.0270 
     31 CB        -72.1905   25.2537  -74.0029 C.3       8 UNK        -0.1976 
     32 N         -72.2188   25.0886  -76.4411 N.am      8 UNK        -0.4313 
     33 C         -71.7729   24.9430  -77.6968 C.2       8 UNK         0.5041 
     34 O         -70.5918   25.0579  -78.0260 O.2       8 UNK        -0.5577 
     35 CA        -72.8337   24.6534  -78.7702 C.3       7 UNK         0.0284 
     36 CB        -73.1968   23.1594  -78.7997 C.3       7 UNK        -0.1958 
     37 N         -74.0420   25.4558  -78.5633 N.am      7 UNK        -0.4454 
     38 C         -74.1385   26.7649  -78.8364 C.2       7 UNK         0.5089 
     39 O         -73.2367   27.4274  -79.3483 O.2       7 UNK        -0.5125 
     40 CA        -75.4557   27.4601  -78.4550 C.3       6 UNK         0.0408 
     41 CB        -76.4677   27.3723  -79.6073 C.3       6 UNK        -0.1791 
     42 N         -76.0557   26.9017  -77.2439 N.am      6 UNK        -0.4762 
     43 C         -75.6010   27.1081  -75.9992 C.2       6 UNK         0.5007 
     44 O         -74.6268   27.8120  -75.7286 O.2       6 UNK        -0.5032 
     45 CA        -76.3440   26.3790  -74.8612 C.3       5 UNK         0.0783 
     46 C46       -77.4896   27.2503  -74.2963 C.3       11 UNK        -0.0857 
     47 S47       -78.8723   27.5859  -75.4583 S.3       11 UNK        -0.2512 
     48 C48       -78.7531   29.3874  -75.7364 C.3       11 UNK         0.0225 
     49 N         -76.8057   25.0336  -75.2181 N.am      5 UNK        -0.4615 
     50 C         -76.0384   24.0481  -75.7090 C.2       4 UNK         0.5053 
     51 O         -74.8215   24.1523  -75.8590 O.2       4 UNK        -0.5105 
     52 CA        -76.7263   22.7404  -76.1491 C.3       4 UNK         0.0263 
     53 CB        -76.4497   21.6255  -75.1286 C.3       4 UNK        -0.1981 
     54 N         -78.1732   22.8608  -76.3465 N.am      4 UNK        -0.4224 
     55 C         -78.7793   23.6822  -77.2156 C.2       3 UNK         0.4895 
     56 O         -78.1735   24.3498  -78.0559 O.2       3 UNK        -0.5091 
     57 CA        -80.3103   23.8281  -77.1014 C.3       3 UNK         0.0250 
     58 CB        -81.0012   23.1069  -78.2704 C.3       3 UNK        -0.1996 
     59 N         -80.9186   23.3801  -75.8365 N.am      3 UNK        -0.4254 
     60 C         -80.6059   23.8094  -74.6041 C.2       2 UNK         0.5004 
     61 O         -79.6418   24.5346  -74.3510 O.2       2 UNK        -0.5226 
     62 CA        -81.4886   23.2959  -73.4507 C.3       2 UNK         0.0269 
     63 CB        -80.9276   21.9747  -72.9000 C.3       2 UNK        -0.1926 
     64 N         -81.5735   24.2684  -72.3559 N.am      2 UNK        -0.4687 
     65 C         -82.1298   25.4849  -72.4582 C.2       1 UNK         0.5165 
     66 O         -82.7780   25.8430  -73.4432 O.2       1 UNK        -0.5079 
     67 H67       -78.0157   25.3639  -70.7430 H         1 UNK         0.0900 
     68 H68       -79.2615   25.6801  -71.9336 H         1 UNK         0.0900 
     69 H69       -78.6550   26.9960  -70.9101 H         1 UNK         0.0900 
     70 H70       -81.9140   25.6540  -69.3557 H         1 UNK         0.2959 
     71 H71       -82.9738   26.6632  -70.9337 H         1 UNK         0.1079 
     72 H72       -80.4440   27.7063  -72.2911 H         1 UNK         0.0837 
     73 H73       -82.0768   28.2456  -72.5217 H         1 UNK         0.0837 
     74 H74       -81.1726   31.4837  -70.7845 H         1 UNK         0.0685 
     75 H75       -82.0534   30.6989  -72.0687 H         1 UNK         0.0685 
     76 H76       -80.8222   29.6534  -73.9897 H         1 UNK         0.1434 
     77 H77       -76.7483   30.8196  -74.5856 H         1 UNK         0.1329 
     78 H78       -78.7076   31.7178  -70.8773 H         1 UNK         0.1335 
     79 H79       -76.5413   32.8323  -71.5360 H         1 UNK         0.0680 
     80 H80       -75.6901   32.3389  -72.9773 H         1 UNK         0.0680 
     81 H81       -75.2610   29.7101  -73.3191 H         1 UNK         0.1032 
     82 H82       -74.7137   28.6355  -72.0812 H         1 UNK         0.1032 
     83 H83       -73.0914   31.1205  -72.8042 H         1 UNK         0.0461 
     84 H84       -70.9918   29.9613  -70.1881 H         1 UNK         0.3453 
     85 H85       -71.8685   31.2929  -70.8971 H         1 UNK         0.3453 
     86 H86       -73.4647   28.8988  -74.5769 H         1 UNK         0.2984 
     87 H87       -72.3831   29.5847  -76.8406 H         1 UNK         0.0554 
     88 H88       -70.2082   30.7144  -77.1064 H         1 UNK         0.0847 
     89 H89       -70.1465   29.1324  -77.8670 H         1 UNK         0.0847 
     90 H90       -69.3693   29.3961  -76.3064 H         1 UNK         0.0847 
     91 H91       -72.5534   27.4250  -76.4629 H         1 UNK         0.3141 
     92 H92       -70.5062   24.8623  -75.2801 H         1 UNK         0.0743 
     93 H93       -71.5942   25.5109  -73.1261 H         1 UNK         0.0784 
     94 H94       -73.0956   25.8609  -73.9680 H         1 UNK         0.0784 
     95 H95       -72.4835   24.2084  -73.9029 H         1 UNK         0.0784 
     96 H96       -73.1990   24.8832  -76.2504 H         1 UNK         0.3213 
     97 H97       -72.4074   24.9166  -79.7409 H         1 UNK         0.0855 
     98 H98       -73.6191   22.8206  -77.8534 H         1 UNK         0.0814 
     99 H99       -72.3131   22.5506  -78.9958 H         1 UNK         0.0814 
    100 H100      -73.9194   22.9423  -79.5865 H         1 UNK         0.0814 
    101 H101      -74.8189   25.0046  -78.1014 H         1 UNK         0.3105 
    102 H102      -75.2365   28.5147  -78.2741 H         1 UNK         0.0547 
    103 H103      -76.7492   26.3402  -79.8212 H         1 UNK         0.0837 
    104 H104      -76.0543   27.7956  -80.5237 H         1 UNK         0.0837 
    105 H105      -77.3781   27.9261  -79.3772 H         1 UNK         0.0837 
    106 H106      -76.8648   26.3042  -77.3637 H         1 UNK         0.3020 
    107 H107      -75.6123   26.2426  -74.0622 H         1 UNK         0.1245 
    108 H108      -77.0789   28.1791  -73.9062 H         1 UNK         0.0781 
    109 H109      -77.9176   26.7519  -73.4294 H         1 UNK         0.0781 
    110 H110      -79.5842   29.7090  -76.3653 H         1 UNK         0.0836 
    111 H111      -77.8408   29.6006  -76.2959 H         1 UNK         0.0836 
    112 H112      -77.8003   24.8646  -75.0923 H         1 UNK         0.3022 
    113 H113      -76.2855   22.4515  -77.1054 H         1 UNK         0.0747 
    114 H114      -76.8882   21.8518  -74.1556 H         1 UNK         0.0793 
    115 H115      -76.8509   20.6693  -75.4654 H         1 UNK         0.0793 
    116 H116      -75.3774   21.4896  -74.9794 H         1 UNK         0.0793 
    117 H117      -78.7588   22.3715  -75.6861 H         1 UNK         0.3047 
    118 H118      -80.5211   24.8961  -77.1887 H         1 UNK         0.0822 
    119 H119      -82.0724   23.3093  -78.2866 H         1 UNK         0.0807 
    120 H120      -80.8625   22.0264  -78.2157 H         1 UNK         0.0807 
    121 H121      -80.5990   23.4386  -79.2290 H         1 UNK         0.0807 
    122 H122      -81.7040   22.7520  -75.9323 H         1 UNK         0.2946 
    123 H123      -82.4986   23.1254  -73.8306 H         1 UNK         0.1144 
    124 H124      -81.5543   21.5797  -72.1002 H         1 UNK         0.0793 
    125 H125      -79.9180   22.0989  -72.5054 H         1 UNK         0.0793 
    126 H126      -80.8817   21.2119  -73.6785 H         1 UNK         0.0793 
    127 H127      -81.0727   24.0448  -71.5089 H         1 UNK         0.2896 
@<TRIPOS>BOND
     1    1    2 1    
     2    1   67 1    
     3    1   68 1    
     4    1   69 1    
     5    2    3 2    
     6    2    4 am   BACKBONE|DICT|INTERRES
     7    4    5 1    
     8    4   70 1    
     9    5    6 1    
    10    5   65 1    
    11    5   71 1    
    12    6    7 1    
    13    6   72 1    
    14    6   73 1    
    15    7    8 1    
    16    8    9 1    
    17    8   74 1    
    18    8   75 1    
    19    9   10 ar   
    20    9   14 ar   
    21   10   11 ar   
    22   10   76 1    
    23   11   12 ar   
    24   11   48 1    
    25   12   13 ar   
    26   12   77 1    
    27   13   14 ar   
    28   13   15 1    
    29   14   78 1    
    30   15   16 1    
    31   15   79 1    
    32   15   80 1    
    33   16   17 1    
    34   17   18 1    
    35   17   81 1    
    36   17   82 1    
    37   18   19 1    
    38   18   22 1    
    39   18   83 1    
    40   19   20 am   BACKBONE|DICT|INTERRES
    41   19   21 2    
    42   20   84 1    
    43   20   85 1    
    44   22   23 am   BACKBONE|DICT|INTERRES
    45   22   86 1    
    46   23   24 2    
    47   23   25 1    
    48   25   26 1    
    49   25   27 1    
    50   25   87 1    
    51   26   88 1    
    52   26   89 1    
    53   26   90 1    
    54   27   28 am   BACKBONE|DICT|INTERRES
    55   27   91 1    
    56   28   29 2    
    57   28   30 1    
    58   30   31 1    
    59   30   32 1    
    60   30   92 1    
    61   31   93 1    
    62   31   94 1    
    63   31   95 1    
    64   32   33 am   BACKBONE|DICT|INTERRES
    65   32   96 1    
    66   33   34 2    
    67   33   35 1    
    68   35   36 1    
    69   35   37 1    
    70   35   97 1    
    71   36   98 1    
    72   36   99 1    
    73   36  100 1    
    74   37   38 am   BACKBONE|DICT|INTERRES
    75   37  101 1    
    76   38   39 2    
    77   38   40 1    
    78   40   41 1    
    79   40   42 1    
    80   40  102 1    
    81   41  103 1    
    82   41  104 1    
    83   41  105 1    
    84   42   43 am   BACKBONE|DICT|INTERRES
    85   42  106 1    
    86   43   44 2    
    87   43   45 1    
    88   45   46 1    
    89   45   49 1    
    90   45  107 1    
    91   46   47 1    
    92   46  108 1    
    93   46  109 1    
    94   47   48 1    
    95   48  110 1    
    96   48  111 1    
    97   49   50 am   BACKBONE|DICT|INTERRES
    98   49  112 1    
    99   50   51 2    
   100   50   52 1    
   101   52   53 1    
   102   52   54 1    
   103   52  113 1    
   104   53  114 1    
   105   53  115 1    
   106   53  116 1    
   107   54   55 am   BACKBONE|DICT|INTERRES
   108   54  117 1    
   109   55   56 2    
   110   55   57 1    
   111   57   58 1    
   112   57   59 1    
   113   57  118 1    
   114   58  119 1    
   115   58  120 1    
   116   58  121 1    
   117   59   60 am   BACKBONE|DICT|INTERRES
   118   59  122 1    
   119   60   61 2    
   120   60   62 1    
   121   62   63 1    
   122   62   64 1    
   123   62  123 1    
   124   63  124 1    
   125   63  125 1    
   126   63  126 1    
   127   64   65 am   BACKBONE|DICT|INTERRES
   128   64  127 1    
   129   65   66 2    
@<TRIPOS>SUBSTRUCTURE
     1 UNK         1 GROUP             0       ****    0 ROOT    
