@<TRIPOS>MOLECULE
3R135
127   129    1
SMALL
USER_CHARGES


@<TRIPOS>ATOM
      1 CA        -77.5938   25.6502  -72.0062 C.3       0 UNK        -0.1998 
      2 C         -79.0867   25.5425  -71.7589 C.2       0 UNK         0.4909 
      3 O         -79.6048   24.4396  -71.5800 O.2       0 UNK        -0.5240 
      4 N         -79.7833   26.6847  -71.7454 N.am      1 UNK        -0.4739 
      5 CA        -81.2322   26.7870  -71.5497 C.3       1 UNK         0.0864 
      6 C6        -81.6867   28.2481  -71.3059 C.3       11 UNK        -0.0881 
      7 S7        -81.0011   28.9338  -69.7574 S.3       11 UNK        -0.2682 
      8 C8        -79.9774   30.3184  -70.3530 C.3       11 UNK         0.0289 
      9 C9        -78.7365   29.8368  -71.0899 C.ar      11 UNK        -0.0687 
     10 C10       -78.6908   29.8675  -72.4858 C.ar      11 UNK        -0.0823 
     11 C11       -77.5608   29.4079  -73.1644 C.ar      11 UNK        -0.0830 
     12 C12       -76.4732   28.9151  -72.4398 C.ar      11 UNK        -0.1021 
     13 C13       -76.4827   28.9195  -71.0391 C.ar      11 UNK        -0.0753 
     14 C14       -77.6273   29.3732  -70.3745 C.ar      11 UNK        -0.0933 
     15 C15       -75.3003   28.4100  -70.2107 C.3       11 UNK         0.0166 
     16 S16       -73.6786   28.4379  -71.0541 S.3       11 UNK        -0.2615 
     17 C17       -73.2811   30.2244  -71.0847 C.3       11 UNK        -0.0865 
     18 CA        -73.5735   30.9213  -72.4506 C.3       10 UNK         0.0862 
     19 C         -73.2195   32.4411  -72.4711 C.2       10 UNK         0.5551 
     20 N         -73.3874   33.1533  -71.3640 N.am      10 UNK        -0.7319 
     21 O         -72.8429   33.0030  -73.4985 O.2       10 UNK        -0.5018 
     22 N         -73.0318   30.1768  -73.5998 N.am      10 UNK        -0.4509 
     23 C         -71.7425   29.9703  -73.8903 C.2       10 UNK         0.4899 
     24 O         -70.8022   30.3908  -73.2133 O.2       10 UNK        -0.4839 
     25 CA        -71.4724   29.1044  -75.1369 C.3       9 UNK         0.0222 
     26 CB        -69.9945   29.1278  -75.5687 C.3       9 UNK        -0.1966 
     27 N         -71.8800   27.7150  -74.9163 N.am      9 UNK        -0.4218 
     28 C         -73.1404   27.2658  -74.9137 C.2       9 UNK         0.5020 
     29 O         -74.1181   27.9725  -75.1698 O.2       9 UNK        -0.5274 
     30 CA        -73.3277   25.7710  -74.6102 C.3       8 UNK         0.0270 
     31 CB        -74.7157   25.4687  -74.0180 C.3       8 UNK        -0.1976 
     32 N         -73.1441   24.9989  -75.8365 N.am      8 UNK        -0.4313 
     33 C         -71.9550   24.6674  -76.3608 C.2       8 UNK         0.5041 
     34 O         -70.8781   24.8696  -75.7975 O.2       8 UNK        -0.5577 
     35 CA        -71.9729   24.0546  -77.7714 C.3       7 UNK         0.0284 
     36 CB        -72.4457   22.5919  -77.7311 C.3       7 UNK        -0.1958 
     37 N         -72.8398   24.8293  -78.6604 N.am      7 UNK        -0.4454 
     38 C         -72.5334   26.0404  -79.1553 C.2       7 UNK         0.5089 
     39 O         -71.4170   26.5532  -79.0842 O.2       7 UNK        -0.5125 
     40 CA        -73.6959   26.8415  -79.7547 C.3       6 UNK         0.0408 
     41 CB        -74.0774   26.3431  -81.1590 C.3       6 UNK        -0.1791 
     42 N         -74.8237   26.7322  -78.8388 N.am      6 UNK        -0.4762 
     43 C         -75.8276   27.5870  -78.6472 C.2       6 UNK         0.5007 
     44 O         -76.0201   28.5895  -79.3368 O.2       6 UNK        -0.5032 
     45 CA        -76.7659   27.2244  -77.4727 C.3       5 UNK         0.0783 
     46 C46       -77.8252   28.3132  -77.1718 C.3       11 UNK        -0.0857 
     47 S47       -78.4481   28.1464  -75.4660 S.3       11 UNK        -0.2512 
     48 C48       -77.4952   29.4792  -74.6793 C.3       11 UNK         0.0225 
     49 N         -77.3889   25.9075  -77.6643 N.am      5 UNK        -0.4615 
     50 C         -76.7891   24.7160  -77.5586 C.2       4 UNK         0.5053 
     51 O         -75.6066   24.5711  -77.2309 O.2       4 UNK        -0.5105 
     52 CA        -77.6408   23.4870  -77.9206 C.3       4 UNK         0.0263 
     53 CB        -76.8035   22.4275  -78.6600 C.3       4 UNK        -0.1981 
     54 N         -78.2577   22.8726  -76.7450 N.am      4 UNK        -0.4224 
     55 C         -79.2090   23.4303  -75.9838 C.2       3 UNK         0.4895 
     56 O         -79.6854   24.5474  -76.1960 O.2       3 UNK        -0.5091 
     57 CA        -79.7016   22.5783  -74.7970 C.3       3 UNK         0.0250 
     58 CB        -78.5489   22.2524  -73.8305 C.3       3 UNK        -0.1996 
     59 N         -80.7837   23.2292  -74.0506 N.am      3 UNK        -0.4254 
     60 C         -82.0562   23.3126  -74.4698 C.2       2 UNK         0.5004 
     61 O         -82.4637   22.7901  -75.5090 O.2       2 UNK        -0.5226 
     62 CA        -83.0621   24.0746  -73.5847 C.3       2 UNK         0.0269 
     63 CB        -84.0277   23.0914  -72.9011 C.3       2 UNK        -0.1926 
     64 N         -82.4204   24.8949  -72.5548 N.am      2 UNK        -0.4687 
     65 C         -81.9793   26.1463  -72.7385 C.2       1 UNK         0.5165 
     66 O         -82.1223   26.7777  -73.7871 O.2       1 UNK        -0.5079 
     67 H67       -77.1206   26.2040  -71.1989 H         1 UNK         0.0900 
     68 H68       -77.1282   24.6668  -72.0473 H         1 UNK         0.0900 
     69 H69       -77.4019   26.1634  -72.9482 H         1 UNK         0.0900 
     70 H70       -79.3017   27.5615  -71.8965 H         1 UNK         0.2959 
     71 H71       -81.4823   26.2161  -70.6525 H         1 UNK         0.1079 
     72 H72       -81.4215   28.8842  -72.1517 H         1 UNK         0.0837 
     73 H73       -82.7745   28.2964  -71.2261 H         1 UNK         0.0837 
     74 H74       -79.6753   30.9239  -69.4972 H         1 UNK         0.0685 
     75 H75       -80.5799   30.9705  -70.9874 H         1 UNK         0.0685 
     76 H76       -79.5340   30.2456  -73.0482 H         1 UNK         0.1434 
     77 H77       -75.6114   28.5457  -72.9771 H         1 UNK         0.1329 
     78 H78       -77.6614   29.3597  -69.2934 H         1 UNK         0.1335 
     79 H79       -75.5075   27.3818  -69.9137 H         1 UNK         0.0680 
     80 H80       -75.2200   28.9816  -69.2848 H         1 UNK         0.0680 
     81 H81       -72.2252   30.3329  -70.8311 H         1 UNK         0.1032 
     82 H82       -73.8322   30.7105  -70.2791 H         1 UNK         0.1032 
     83 H83       -74.6521   30.9071  -72.5982 H         1 UNK         0.0461 
     84 H84       -73.7271   32.7348  -70.5132 H         1 UNK         0.3453 
     85 H85       -73.1774   34.1392  -71.3847 H         1 UNK         0.3453 
     86 H86       -73.7145   29.7314  -74.2027 H         1 UNK         0.2984 
     87 H87       -72.0626   29.5159  -75.9587 H         1 UNK         0.0554 
     88 H88       -69.6599   30.1486  -75.7579 H         1 UNK         0.0847 
     89 H89       -69.8422   28.5622  -76.4884 H         1 UNK         0.0847 
     90 H90       -69.3409   28.7066  -74.8037 H         1 UNK         0.0847 
     91 H91       -71.1405   27.0481  -74.7371 H         1 UNK         0.3141 
     92 H92       -72.5799   25.4697  -73.8732 H         1 UNK         0.0743 
     93 H93       -74.8658   26.0286  -73.0941 H         1 UNK         0.0784 
     94 H94       -75.5228   25.7398  -74.6991 H         1 UNK         0.0784 
     95 H95       -74.8234   24.4108  -73.7789 H         1 UNK         0.0784 
     96 H96       -73.9910   24.7846  -76.3582 H         1 UNK         0.3213 
     97 H97       -70.9543   24.0769  -78.1656 H         1 UNK         0.0855 
     98 H98       -73.4673   22.5024  -77.3592 H         1 UNK         0.0814 
     99 H99       -71.8076   21.9956  -77.0774 H         1 UNK         0.0814 
    100 H100      -72.4088   22.1367  -78.7210 H         1 UNK         0.0814 
    101 H101      -73.7736   24.4688  -78.7954 H         1 UNK         0.3105 
    102 H102      -73.3909   27.8883  -79.8172 H         1 UNK         0.0547 
    103 H103      -74.4183   25.3074  -81.1454 H         1 UNK         0.0837 
    104 H104      -74.8733   26.9503  -81.5905 H         1 UNK         0.0837 
    105 H105      -73.2243   26.3991  -81.8362 H         1 UNK         0.0837 
    106 H106      -74.8007   25.9396  -78.2045 H         1 UNK         0.3020 
    107 H107      -76.1139   27.1575  -76.5997 H         1 UNK         0.1245 
    108 H108      -78.6619   28.2479  -77.8693 H         1 UNK         0.0781 
    109 H109      -77.4146   29.3176  -77.2930 H         1 UNK         0.0781 
    110 H110      -77.8743   30.4440  -75.0195 H         1 UNK         0.0836 
    111 H111      -76.4565   29.4248  -75.0098 H         1 UNK         0.0836 
    112 H112      -78.3761   25.9204  -77.8790 H         1 UNK         0.3022 
    113 H113      -78.4385   23.8080  -78.5940 H         1 UNK         0.0747 
    114 H114      -76.0167   22.0155  -78.0265 H         1 UNK         0.0793 
    115 H115      -77.4245   21.5998  -79.0031 H         1 UNK         0.0793 
    116 H116      -76.3219   22.8551  -79.5405 H         1 UNK         0.0793 
    117 H117      -77.9075   21.9618  -76.4865 H         1 UNK         0.3047 
    118 H118      -80.0866   21.6387  -75.1992 H         1 UNK         0.0822 
    119 H119      -78.9102   21.7619  -72.9263 H         1 UNK         0.0807 
    120 H120      -78.0131   23.1519  -73.5321 H         1 UNK         0.0807 
    121 H121      -77.8219   21.5812  -74.2885 H         1 UNK         0.0807 
    122 H122      -80.5190   23.7012  -73.1914 H         1 UNK         0.2946 
    123 H123      -83.6448   24.7205  -74.2461 H         1 UNK         0.1144 
    124 H124      -84.7850   23.6181  -72.3201 H         1 UNK         0.0793 
    125 H125      -83.5028   22.4094  -72.2309 H         1 UNK         0.0793 
    126 H126      -84.5536   22.4831  -73.6384 H         1 UNK         0.0793 
    127 H127      -82.2111   24.4346  -71.6792 H         1 UNK         0.2896 
@<TRIPOS>BOND
     1    1    2 1    
     2    1   67 1    
     3    1   68 1    
     4    1   69 1    
     5    2    3 2    
     6    2    4 am   BACKBONE|DICT|INTERRES
     7    4    5 1    
     8    4   70 1    
     9    5    6 1    
    10    5   65 1    
    11    5   71 1    
    12    6    7 1    
    13    6   72 1    
    14    6   73 1    
    15    7    8 1    
    16    8    9 1    
    17    8   74 1    
    18    8   75 1    
    19    9   10 ar   
    20    9   14 ar   
    21   10   11 ar   
    22   10   76 1    
    23   11   12 ar   
    24   11   48 1    
    25   12   13 ar   
    26   12   77 1    
    27   13   14 ar   
    28   13   15 1    
    29   14   78 1    
    30   15   16 1    
    31   15   79 1    
    32   15   80 1    
    33   16   17 1    
    34   17   18 1    
    35   17   81 1    
    36   17   82 1    
    37   18   19 1    
    38   18   22 1    
    39   18   83 1    
    40   19   20 am   BACKBONE|DICT|INTERRES
    41   19   21 2    
    42   20   84 1    
    43   20   85 1    
    44   22   23 am   BACKBONE|DICT|INTERRES
    45   22   86 1    
    46   23   24 2    
    47   23   25 1    
    48   25   26 1    
    49   25   27 1    
    50   25   87 1    
    51   26   88 1    
    52   26   89 1    
    53   26   90 1    
    54   27   28 am   BACKBONE|DICT|INTERRES
    55   27   91 1    
    56   28   29 2    
    57   28   30 1    
    58   30   31 1    
    59   30   32 1    
    60   30   92 1    
    61   31   93 1    
    62   31   94 1    
    63   31   95 1    
    64   32   33 am   BACKBONE|DICT|INTERRES
    65   32   96 1    
    66   33   34 2    
    67   33   35 1    
    68   35   36 1    
    69   35   37 1    
    70   35   97 1    
    71   36   98 1    
    72   36   99 1    
    73   36  100 1    
    74   37   38 am   BACKBONE|DICT|INTERRES
    75   37  101 1    
    76   38   39 2    
    77   38   40 1    
    78   40   41 1    
    79   40   42 1    
    80   40  102 1    
    81   41  103 1    
    82   41  104 1    
    83   41  105 1    
    84   42   43 am   BACKBONE|DICT|INTERRES
    85   42  106 1    
    86   43   44 2    
    87   43   45 1    
    88   45   46 1    
    89   45   49 1    
    90   45  107 1    
    91   46   47 1    
    92   46  108 1    
    93   46  109 1    
    94   47   48 1    
    95   48  110 1    
    96   48  111 1    
    97   49   50 am   BACKBONE|DICT|INTERRES
    98   49  112 1    
    99   50   51 2    
   100   50   52 1    
   101   52   53 1    
   102   52   54 1    
   103   52  113 1    
   104   53  114 1    
   105   53  115 1    
   106   53  116 1    
   107   54   55 am   BACKBONE|DICT|INTERRES
   108   54  117 1    
   109   55   56 2    
   110   55   57 1    
   111   57   58 1    
   112   57   59 1    
   113   57  118 1    
   114   58  119 1    
   115   58  120 1    
   116   58  121 1    
   117   59   60 am   BACKBONE|DICT|INTERRES
   118   59  122 1    
   119   60   61 2    
   120   60   62 1    
   121   62   63 1    
   122   62   64 1    
   123   62  123 1    
   124   63  124 1    
   125   63  125 1    
   126   63  126 1    
   127   64   65 am   BACKBONE|DICT|INTERRES
   128   64  127 1    
   129   65   66 2    
@<TRIPOS>SUBSTRUCTURE
     1 UNK         1 GROUP             0       ****    0 ROOT    
