@<TRIPOS>MOLECULE
3R135
127   129    1
SMALL
USER_CHARGES


@<TRIPOS>ATOM
      1 CA        -84.3935   24.0563  -69.5705 C.3       0 UNK        -0.1998 
      2 C         -84.2741   24.8652  -70.8535 C.2       0 UNK         0.4909 
      3 O         -85.0872   24.6952  -71.7631 O.2       0 UNK        -0.5240 
      4 N         -83.2740   25.7517  -70.9283 N.am      1 UNK        -0.4739 
      5 CA        -82.9513   26.5631  -72.1064 C.3       1 UNK         0.0864 
      6 C6        -82.0617   27.7884  -71.7568 C.3       11 UNK        -0.0881 
      7 S7        -80.7146   27.4725  -70.5580 S.3       11 UNK        -0.2682 
      8 C8        -79.3614   26.9008  -71.6279 C.3       11 UNK         0.0289 
      9 C9        -78.3825   28.0035  -72.0032 C.ar      11 UNK        -0.0687 
     10 C10       -78.7594   29.0182  -72.8853 C.ar      11 UNK        -0.0823 
     11 C11       -77.8453   29.9970  -73.2812 C.ar      11 UNK        -0.0830 
     12 C12       -76.5356   29.9503  -72.7944 C.ar      11 UNK        -0.1021 
     13 C13       -76.1407   28.9371  -71.9110 C.ar      11 UNK        -0.0753 
     14 C14       -77.0731   27.9731  -71.5158 C.ar      11 UNK        -0.0933 
     15 C15       -74.6980   28.8181  -71.4333 C.3       11 UNK         0.0166 
     16 S16       -73.9464   30.4132  -70.9664 S.3       11 UNK        -0.2615 
     17 C17       -72.1876   29.9366  -70.8361 C.3       11 UNK        -0.0865 
     18 CA        -71.3839   30.2513  -72.1271 C.3       10 UNK         0.0862 
     19 C         -69.8622   29.9893  -71.9213 C.2       10 UNK         0.5551 
     20 N         -69.2239   29.0958  -72.6693 N.am      10 UNK        -0.7319 
     21 O         -69.2459   30.6179  -71.0643 O.2       10 UNK        -0.5018 
     22 N         -71.9592   29.5679  -73.2942 N.am      10 UNK        -0.4509 
     23 C         -71.8136   29.9422  -74.5692 C.2       10 UNK         0.4899 
     24 O         -71.2203   30.9633  -74.9202 O.2       10 UNK        -0.4839 
     25 CA        -72.4461   29.0095  -75.6233 C.3       9 UNK         0.0222 
     26 CB        -71.7920   29.1552  -77.0128 C.3       9 UNK        -0.1966 
     27 N         -72.4920   27.5923  -75.2302 N.am      9 UNK        -0.4218 
     28 C         -71.4549   26.8154  -74.8754 C.2       9 UNK         0.5020 
     29 O         -70.2976   27.2194  -74.7547 O.2       9 UNK        -0.5274 
     30 CA        -71.7638   25.3387  -74.6015 C.3       8 UNK         0.0270 
     31 CB        -72.3820   25.1580  -73.2034 C.3       8 UNK        -0.1976 
     32 N         -72.6638   24.8013  -75.6262 N.am      8 UNK        -0.4313 
     33 C         -72.2640   24.0422  -76.6552 C.2       8 UNK         0.5041 
     34 O         -71.1024   23.6656  -76.8198 O.2       8 UNK        -0.5577 
     35 CA        -73.3306   23.6163  -77.6774 C.3       7 UNK         0.0284 
     36 CB        -74.1076   22.3864  -77.1803 C.3       7 UNK        -0.1958 
     37 N         -74.2686   24.6812  -78.0410 N.am      7 UNK        -0.4454 
     38 C         -73.9529   25.7362  -78.8073 C.2       7 UNK         0.5089 
     39 O         -72.8136   25.9790  -79.2052 O.2       7 UNK        -0.5125 
     40 CA        -75.1043   26.6648  -79.2224 C.3       6 UNK         0.0408 
     41 CB        -75.9469   26.0190  -80.3349 C.3       6 UNK        -0.1791 
     42 N         -75.9616   26.9777  -78.0804 N.am      6 UNK        -0.4762 
     43 C         -75.9056   28.1186  -77.3781 C.2       6 UNK         0.5007 
     44 O         -75.1974   29.0734  -77.6962 O.2       6 UNK        -0.5032 
     45 CA        -76.7644   28.2127  -76.0942 C.3       5 UNK         0.0783 
     46 C46       -78.0046   29.1228  -76.2989 C.3       11 UNK        -0.0857 
     47 S47       -77.6028   30.8660  -75.9268 S.3       11 UNK        -0.2512 
     48 C48       -78.2811   31.0904  -74.2489 C.3       11 UNK         0.0225 
     49 N         -77.1228   26.9017  -75.5398 N.am      5 UNK        -0.4615 
     50 C         -76.2279   26.0416  -75.0305 C.2       4 UNK         0.5053 
     51 O         -75.0269   26.2960  -74.9330 O.2       4 UNK        -0.5105 
     52 CA        -76.7150   24.6293  -74.6552 C.3       4 UNK         0.0263 
     53 CB        -76.9502   24.5006  -73.1466 C.3       4 UNK        -0.1981 
     54 N         -77.9100   24.1977  -75.3881 N.am      4 UNK        -0.4224 
     55 C         -77.9681   24.0802  -76.7212 C.2       3 UNK         0.4895 
     56 O         -76.9978   24.2697  -77.4563 O.2       3 UNK        -0.5091 
     57 CA        -79.3179   23.7320  -77.3653 C.3       3 UNK         0.0250 
     58 CB        -79.3542   22.2382  -77.7261 C.3       3 UNK        -0.1996 
     59 N         -80.5348   24.0723  -76.6155 N.am      3 UNK        -0.4254 
     60 C         -80.8839   25.2589  -76.0928 C.2       2 UNK         0.5004 
     61 O         -80.1094   26.2081  -75.9460 O.2       2 UNK        -0.5226 
     62 CA        -82.3814   25.4404  -75.7590 C.3       2 UNK         0.0269 
     63 CB        -83.2205   24.1409  -75.8377 C.3       2 UNK        -0.1926 
     64 N         -82.6412   26.1409  -74.4961 N.am      2 UNK        -0.4687 
     65 C         -82.3729   25.7054  -73.2571 C.2       1 UNK         0.5165 
     66 O         -81.7271   24.6830  -73.0094 O.2       1 UNK        -0.5079 
     67 H67       -83.6207   24.3210  -68.8489 H         1 UNK         0.0900 
     68 H68       -84.3036   22.9925  -69.7887 H         1 UNK         0.0900 
     69 H69       -85.3642   24.2290  -69.1065 H         1 UNK         0.0900 
     70 H70       -82.6174   25.8362  -70.1647 H         1 UNK         0.2959 
     71 H71       -83.9011   26.9596  -72.4740 H         1 UNK         0.1079 
     72 H72       -81.6718   28.2583  -72.6584 H         1 UNK         0.0837 
     73 H73       -82.6956   28.5507  -71.3010 H         1 UNK         0.0837 
     74 H74       -79.7530   26.4502  -72.5385 H         1 UNK         0.0685 
     75 H75       -78.8451   26.1040  -71.0912 H         1 UNK         0.0685 
     76 H76       -79.7608   29.0399  -73.2854 H         1 UNK         0.1434 
     77 H77       -75.8203   30.6925  -73.1217 H         1 UNK         0.1329 
     78 H78       -76.7697   27.1770  -70.8496 H         1 UNK         0.1335 
     79 H79       -74.1238   28.3518  -72.2329 H         1 UNK         0.0680 
     80 H80       -74.6327   28.1475  -70.5749 H         1 UNK         0.0680 
     81 H81       -71.7681   30.4827  -69.9888 H         1 UNK         0.1032 
     82 H82       -72.1075   28.8792  -70.5765 H         1 UNK         0.1032 
     83 H83       -71.4725   31.3248  -72.3060 H         1 UNK         0.0461 
     84 H84       -69.7072   28.5686  -73.3889 H         1 UNK         0.3453 
     85 H85       -68.2388   28.9466  -72.5204 H         1 UNK         0.3453 
     86 H86       -72.4425   28.7041  -73.1082 H         1 UNK         0.2984 
     87 H87       -73.4838   29.3315  -75.7078 H         1 UNK         0.0554 
     88 H88       -71.8712   30.1792  -77.3795 H         1 UNK         0.0847 
     89 H89       -72.2799   28.5140  -77.7474 H         1 UNK         0.0847 
     90 H90       -70.7332   28.8954  -76.9898 H         1 UNK         0.0847 
     91 H91       -73.4179   27.1690  -75.2224 H         1 UNK         0.3141 
     92 H92       -70.8156   24.7969  -74.6111 H         1 UNK         0.0743 
     93 H93       -71.6987   25.5118  -72.4302 H         1 UNK         0.0784 
     94 H94       -73.3156   25.7075  -73.0849 H         1 UNK         0.0784 
     95 H95       -72.5864   24.1074  -72.9968 H         1 UNK         0.0784 
     96 H96       -73.6309   25.1050  -75.5790 H         1 UNK         0.3213 
     97 H97       -72.8033   23.3226  -78.5880 H         1 UNK         0.0855 
     98 H98       -74.6611   22.5943  -76.2660 H         1 UNK         0.0814 
     99 H99       -73.4296   21.5588  -76.9675 H         1 UNK         0.0814 
    100 H100      -74.8191   22.0372  -77.9289 H         1 UNK         0.0814 
    101 H101      -75.2459   24.5339  -77.7948 H         1 UNK         0.3105 
    102 H102      -74.6653   27.5778  -79.6303 H         1 UNK         0.0547 
    103 H103      -76.4210   25.0934  -80.0064 H         1 UNK         0.0837 
    104 H104      -76.7326   26.6931  -80.6758 H         1 UNK         0.0837 
    105 H105      -75.3290   25.7786  -81.2010 H         1 UNK         0.0837 
    106 H106      -76.5498   26.2243  -77.7417 H         1 UNK         0.3020 
    107 H107      -76.1193   28.6748  -75.3434 H         1 UNK         0.1245 
    108 H108      -78.8319   28.8102  -75.6613 H         1 UNK         0.0781 
    109 H109      -78.3936   29.0540  -77.3167 H         1 UNK         0.0781 
    110 H110      -77.9609   32.0602  -73.8655 H         1 UNK         0.0836 
    111 H111      -79.3694   31.1363  -74.3133 H         1 UNK         0.0836 
    112 H112      -78.0973   26.6247  -75.6109 H         1 UNK         0.3022 
    113 H113      -75.9070   23.9454  -74.9155 H         1 UNK         0.0747 
    114 H114      -76.1128   24.9065  -72.5765 H         1 UNK         0.0793 
    115 H115      -77.0677   23.4574  -72.8530 H         1 UNK         0.0793 
    116 H116      -77.8469   25.0328  -72.8446 H         1 UNK         0.0793 
    117 H117      -78.7559   24.0509  -74.8559 H         1 UNK         0.3047 
    118 H118      -79.3632   24.3014  -78.2958 H         1 UNK         0.0822 
    119 H119      -78.4774   21.9532  -78.3101 H         1 UNK         0.0807 
    120 H120      -80.2304   21.9938  -78.3270 H         1 UNK         0.0807 
    121 H121      -79.3702   21.6092  -76.8351 H         1 UNK         0.0807 
    122 H122      -81.2594   23.3695  -76.6428 H         1 UNK         0.2946 
    123 H123      -82.7572   26.1038  -76.5399 H         1 UNK         0.1144 
    124 H124      -83.2002   23.7085  -76.8390 H         1 UNK         0.0793 
    125 H125      -84.2676   24.3387  -75.6075 H         1 UNK         0.0793 
    126 H126      -82.8709   23.3820  -75.1363 H         1 UNK         0.0793 
    127 H127      -83.1268   27.0219  -74.5946 H         1 UNK         0.2896 
@<TRIPOS>BOND
     1    1    2 1    
     2    1   67 1    
     3    1   68 1    
     4    1   69 1    
     5    2    3 2    
     6    2    4 am   BACKBONE|DICT|INTERRES
     7    4    5 1    
     8    4   70 1    
     9    5    6 1    
    10    5   65 1    
    11    5   71 1    
    12    6    7 1    
    13    6   72 1    
    14    6   73 1    
    15    7    8 1    
    16    8    9 1    
    17    8   74 1    
    18    8   75 1    
    19    9   10 ar   
    20    9   14 ar   
    21   10   11 ar   
    22   10   76 1    
    23   11   12 ar   
    24   11   48 1    
    25   12   13 ar   
    26   12   77 1    
    27   13   14 ar   
    28   13   15 1    
    29   14   78 1    
    30   15   16 1    
    31   15   79 1    
    32   15   80 1    
    33   16   17 1    
    34   17   18 1    
    35   17   81 1    
    36   17   82 1    
    37   18   19 1    
    38   18   22 1    
    39   18   83 1    
    40   19   20 am   BACKBONE|DICT|INTERRES
    41   19   21 2    
    42   20   84 1    
    43   20   85 1    
    44   22   23 am   BACKBONE|DICT|INTERRES
    45   22   86 1    
    46   23   24 2    
    47   23   25 1    
    48   25   26 1    
    49   25   27 1    
    50   25   87 1    
    51   26   88 1    
    52   26   89 1    
    53   26   90 1    
    54   27   28 am   BACKBONE|DICT|INTERRES
    55   27   91 1    
    56   28   29 2    
    57   28   30 1    
    58   30   31 1    
    59   30   32 1    
    60   30   92 1    
    61   31   93 1    
    62   31   94 1    
    63   31   95 1    
    64   32   33 am   BACKBONE|DICT|INTERRES
    65   32   96 1    
    66   33   34 2    
    67   33   35 1    
    68   35   36 1    
    69   35   37 1    
    70   35   97 1    
    71   36   98 1    
    72   36   99 1    
    73   36  100 1    
    74   37   38 am   BACKBONE|DICT|INTERRES
    75   37  101 1    
    76   38   39 2    
    77   38   40 1    
    78   40   41 1    
    79   40   42 1    
    80   40  102 1    
    81   41  103 1    
    82   41  104 1    
    83   41  105 1    
    84   42   43 am   BACKBONE|DICT|INTERRES
    85   42  106 1    
    86   43   44 2    
    87   43   45 1    
    88   45   46 1    
    89   45   49 1    
    90   45  107 1    
    91   46   47 1    
    92   46  108 1    
    93   46  109 1    
    94   47   48 1    
    95   48  110 1    
    96   48  111 1    
    97   49   50 am   BACKBONE|DICT|INTERRES
    98   49  112 1    
    99   50   51 2    
   100   50   52 1    
   101   52   53 1    
   102   52   54 1    
   103   52  113 1    
   104   53  114 1    
   105   53  115 1    
   106   53  116 1    
   107   54   55 am   BACKBONE|DICT|INTERRES
   108   54  117 1    
   109   55   56 2    
   110   55   57 1    
   111   57   58 1    
   112   57   59 1    
   113   57  118 1    
   114   58  119 1    
   115   58  120 1    
   116   58  121 1    
   117   59   60 am   BACKBONE|DICT|INTERRES
   118   59  122 1    
   119   60   61 2    
   120   60   62 1    
   121   62   63 1    
   122   62   64 1    
   123   62  123 1    
   124   63  124 1    
   125   63  125 1    
   126   63  126 1    
   127   64   65 am   BACKBONE|DICT|INTERRES
   128   64  127 1    
   129   65   66 2    
@<TRIPOS>SUBSTRUCTURE
     1 UNK         1 GROUP             0       ****    0 ROOT    
