@<TRIPOS>MOLECULE
3R135
127   129    1
SMALL
USER_CHARGES


@<TRIPOS>ATOM
      1 CA        -83.5360   26.7050  -76.0497 C.3       0 UNK        -0.1998 
      2 C         -82.2035   27.4347  -75.9815 C.2       0 UNK         0.4909 
      3 O         -81.6190   27.7383  -77.0221 O.2       0 UNK        -0.5240 
      4 N         -81.7143   27.7050  -74.7629 N.am      1 UNK        -0.4739 
      5 CA        -80.4276   28.3495  -74.4708 C.3       1 UNK         0.0864 
      6 C6        -80.2525   28.5423  -72.9443 C.3       11 UNK        -0.0881 
      7 S7        -78.9959   29.7926  -72.5216 S.3       11 UNK        -0.2682 
      8 C8        -78.6587   29.3574  -70.7855 C.3       11 UNK         0.0289 
      9 C9        -77.2901   28.7129  -70.6186 C.ar      11 UNK        -0.0687 
     10 C10       -77.1015   27.3537  -70.8890 C.ar      11 UNK        -0.0823 
     11 C11       -75.8463   26.7647  -70.7040 C.ar      11 UNK        -0.0830 
     12 C12       -74.7790   27.5478  -70.2534 C.ar      11 UNK        -0.1021 
     13 C13       -74.9469   28.9087  -69.9799 C.ar      11 UNK        -0.0753 
     14 C14       -76.2131   29.4813  -70.1664 C.ar      11 UNK        -0.0933 
     15 C15       -73.7426   29.6928  -69.4473 C.3       11 UNK         0.0166 
     16 S16       -73.9778   31.4988  -69.2789 S.3       11 UNK        -0.2615 
     17 C17       -73.0263   32.1755  -70.6819 C.3       11 UNK        -0.0865 
     18 CA        -73.8789   32.3460  -71.9776 C.3       10 UNK         0.0862 
     19 C         -73.2756   33.3783  -72.9823 C.2       10 UNK         0.5551 
     20 N         -72.8906   34.5589  -72.5144 N.am      10 UNK        -0.7319 
     21 O         -73.1953   33.1552  -74.1884 O.2       10 UNK        -0.5018 
     22 N         -74.2305   31.0530  -72.5932 N.am      10 UNK        -0.4509 
     23 C         -73.3787   30.1623  -73.1218 C.2       10 UNK         0.4899 
     24 O         -72.1524   30.2950  -73.1149 O.2       10 UNK        -0.4839 
     25 CA        -73.9787   28.8726  -73.7199 C.3       9 UNK         0.0222 
     26 CB        -75.5034   28.9200  -73.9680 C.3       9 UNK        -0.1966 
     27 N         -73.2632   28.4475  -74.9281 N.am      9 UNK        -0.4218 
     28 C         -73.1657   29.1114  -76.0914 C.2       9 UNK         0.5020 
     29 O         -73.7175   30.1875  -76.3253 O.2       9 UNK        -0.5274 
     30 CA        -72.3046   28.4680  -77.1988 C.3       8 UNK         0.0270 
     31 CB        -70.9125   29.1205  -77.2403 C.3       8 UNK        -0.1976 
     32 N         -72.1504   27.0110  -77.0919 N.am      8 UNK        -0.4313 
     33 C         -73.1589   26.1335  -77.1710 C.2       8 UNK         0.5041 
     34 O         -74.3355   26.4635  -77.3341 O.2       8 UNK        -0.5577 
     35 CA        -72.8039   24.6477  -77.0216 C.3       7 UNK         0.0284 
     36 CB        -72.1288   24.3610  -75.6633 C.3       7 UNK        -0.1958 
     37 N         -74.0479   23.8959  -77.1273 N.am      7 UNK        -0.4454 
     38 C         -74.1959   22.5784  -77.2910 C.2       7 UNK         0.5089 
     39 O         -73.2614   21.7952  -77.4707 O.2       7 UNK        -0.5125 
     40 CA        -75.6475   22.0678  -77.2017 C.3       6 UNK         0.0408 
     41 CB        -75.7568   20.5308  -77.1198 C.3       6 UNK        -0.1791 
     42 N         -76.3721   22.7204  -76.1026 N.am      6 UNK        -0.4762 
     43 C         -76.0880   22.6561  -74.7901 C.2       6 UNK         0.5007 
     44 O         -75.2393   21.9077  -74.3038 O.2       6 UNK        -0.5032 
     45 CA        -76.8913   23.5903  -73.8599 C.3       5 UNK         0.0783 
     46 C46       -76.1948   24.9669  -73.6821 C.3       11 UNK        -0.0857 
     47 S47       -74.8021   24.9178  -72.5103 S.3       11 UNK        -0.2512 
     48 C48       -75.6433   25.2730  -70.9342 C.3       11 UNK         0.0225 
     49 N         -78.2728   23.7683  -74.3081 N.am      5 UNK        -0.4615 
     50 C         -79.2201   22.8223  -74.3407 C.2       4 UNK         0.5053 
     51 O         -79.0534   21.6663  -73.9524 O.2       4 UNK        -0.5105 
     52 CA        -80.5818   23.2430  -74.9156 C.3       4 UNK         0.0263 
     53 CB        -81.4245   23.9707  -73.8546 C.3       4 UNK        -0.1981 
     54 N         -80.4148   24.1059  -76.0871 N.am      4 UNK        -0.4224 
     55 C         -80.2202   23.6561  -77.3352 C.2       3 UNK         0.4895 
     56 O         -80.2501   22.4650  -77.6452 O.2       3 UNK        -0.5091 
     57 CA        -79.9383   24.7025  -78.4290 C.3       3 UNK         0.0250 
     58 CB        -81.2256   25.0485  -79.1942 C.3       3 UNK        -0.1996 
     59 N         -79.3276   25.9312  -77.9125 N.am      3 UNK        -0.4254 
     60 C         -78.0543   26.0129  -77.4972 C.2       2 UNK         0.5004 
     61 O         -77.2719   25.0629  -77.5180 O.2       2 UNK        -0.5226 
     62 CA        -77.5918   27.3570  -76.9035 C.3       2 UNK         0.0269 
     63 CB        -77.0777   28.2913  -78.0098 C.3       2 UNK        -0.1926 
     64 N         -78.6226   28.0531  -76.1236 N.am      2 UNK        -0.4687 
     65 C         -79.2711   27.5298  -75.0746 C.2       1 UNK         0.5165 
     66 O         -79.0427   26.4062  -74.6274 O.2       1 UNK        -0.5079 
     67 H67       -83.3950   25.7029  -76.4535 H         1 UNK         0.0900 
     68 H68       -84.2248   27.2420  -76.7012 H         1 UNK         0.0900 
     69 H69       -84.0012   26.6133  -75.0684 H         1 UNK         0.0900 
     70 H70       -82.2434   27.4149  -73.9532 H         1 UNK         0.2959 
     71 H71       -80.4496   29.3328  -74.9456 H         1 UNK         0.1079 
     72 H72       -81.1902   28.8847  -72.5031 H         1 UNK         0.0837 
     73 H73       -80.0207   27.5953  -72.4521 H         1 UNK         0.0837 
     74 H74       -78.7213   30.2667  -70.1858 H         1 UNK         0.0685 
     75 H75       -79.4317   28.6938  -70.3954 H         1 UNK         0.0685 
     76 H76       -77.9345   26.7552  -71.2314 H         1 UNK         0.1434 
     77 H77       -73.8117   27.0878  -70.1017 H         1 UNK         0.1329 
     78 H78       -76.3800   30.5266  -69.9522 H         1 UNK         0.1335 
     79 H79       -73.4968   29.2993  -68.4601 H         1 UNK         0.0680 
     80 H80       -72.8746   29.4933  -70.0769 H         1 UNK         0.0680 
     81 H81       -72.1351   31.5739  -70.8620 H         1 UNK         0.1032 
     82 H82       -72.6475   33.1365  -70.3332 H         1 UNK         0.1032 
     83 H83       -74.8357   32.7834  -71.6899 H         1 UNK         0.0461 
     84 H84       -72.5179   35.2388  -73.1589 H         1 UNK         0.3453 
     85 H85       -72.9846   34.7957  -71.5394 H         1 UNK         0.3453 
     86 H86       -75.2182   30.8573  -72.6546 H         1 UNK         0.2984 
     87 H87       -73.7991   28.0935  -72.9781 H         1 UNK         0.0554 
     88 H88       -75.8653   27.9547  -74.3159 H         1 UNK         0.0847 
     89 H89       -75.7830   29.6709  -74.7073 H         1 UNK         0.0847 
     90 H90       -76.0510   29.1364  -73.0536 H         1 UNK         0.0847 
     91 H91       -72.7391   27.5894  -74.8429 H         1 UNK         0.3141 
     92 H92       -72.8041   28.6729  -78.1483 H         1 UNK         0.0743 
     93 H93       -70.3503   28.9302  -76.3251 H         1 UNK         0.0784 
     94 H94       -70.3245   28.7531  -78.0817 H         1 UNK         0.0784 
     95 H95       -70.9927   30.2028  -77.3525 H         1 UNK         0.0784 
     96 H96       -71.2104   26.6636  -76.9650 H         1 UNK         0.3213 
     97 H97       -72.1417   24.3621  -77.8413 H         1 UNK         0.0855 
     98 H98       -72.7624   24.6659  -74.8296 H         1 UNK         0.0814 
     99 H99       -71.1797   24.8884  -75.5659 H         1 UNK         0.0814 
    100 H100      -71.9121   23.2999  -75.5401 H         1 UNK         0.0814 
    101 H101      -74.8740   24.4865  -77.0812 H         1 UNK         0.3105 
    102 H102      -76.1421   22.3845  -78.1211 H         1 UNK         0.0547 
    103 H103      -75.3346   20.0644  -78.0105 H         1 UNK         0.0837 
    104 H104      -75.2204   20.1277  -76.2605 H         1 UNK         0.0837 
    105 H105      -76.7962   20.2111  -77.0476 H         1 UNK         0.0837 
    106 H106      -77.0406   23.4241  -76.4029 H         1 UNK         0.3020 
    107 H107      -76.9446   23.0980  -72.8863 H         1 UNK         0.1245 
    108 H108      -76.9022   25.7091  -73.3120 H         1 UNK         0.0781 
    109 H109      -75.8397   25.3570  -74.6382 H         1 UNK         0.0781 
    110 H110      -75.0398   24.8663  -70.1213 H         1 UNK         0.0836 
    111 H111      -76.5948   24.7406  -70.8934 H         1 UNK         0.0836 
    112 H112      -78.5323   24.7177  -74.5707 H         1 UNK         0.3022 
    113 H113      -81.1184   22.3377  -75.2081 H         1 UNK         0.0747 
    114 H114      -82.4070   24.2368  -74.2443 H         1 UNK         0.0793 
    115 H115      -81.5841   23.3341  -72.9834 H         1 UNK         0.0793 
    116 H116      -80.9436   24.8844  -73.5044 H         1 UNK         0.0793 
    117 H117      -80.3081   25.0954  -75.9089 H         1 UNK         0.3047 
    118 H118      -79.2395   24.2502  -79.1365 H         1 UNK         0.0822 
    119 H119      -81.0277   25.7449  -80.0092 H         1 UNK         0.0807 
    120 H120      -81.9768   25.4978  -78.5450 H         1 UNK         0.0807 
    121 H121      -81.6695   24.1542  -79.6339 H         1 UNK         0.0807 
    122 H122      -79.9327   26.7401  -77.8120 H         1 UNK         0.2946 
    123 H123      -76.7589   27.1314  -76.2366 H         1 UNK         0.1144 
    124 H124      -76.6089   29.1809  -77.5882 H         1 UNK         0.0793 
    125 H125      -77.8790   28.6113  -78.6766 H         1 UNK         0.0793 
    126 H126      -76.3236   27.7933  -78.6210 H         1 UNK         0.0793 
    127 H127      -78.8980   28.9656  -76.4575 H         1 UNK         0.2896 
@<TRIPOS>BOND
     1    1    2 1    
     2    1   67 1    
     3    1   68 1    
     4    1   69 1    
     5    2    3 2    
     6    2    4 am   BACKBONE|DICT|INTERRES
     7    4    5 1    
     8    4   70 1    
     9    5    6 1    
    10    5   65 1    
    11    5   71 1    
    12    6    7 1    
    13    6   72 1    
    14    6   73 1    
    15    7    8 1    
    16    8    9 1    
    17    8   74 1    
    18    8   75 1    
    19    9   10 ar   
    20    9   14 ar   
    21   10   11 ar   
    22   10   76 1    
    23   11   12 ar   
    24   11   48 1    
    25   12   13 ar   
    26   12   77 1    
    27   13   14 ar   
    28   13   15 1    
    29   14   78 1    
    30   15   16 1    
    31   15   79 1    
    32   15   80 1    
    33   16   17 1    
    34   17   18 1    
    35   17   81 1    
    36   17   82 1    
    37   18   19 1    
    38   18   22 1    
    39   18   83 1    
    40   19   20 am   BACKBONE|DICT|INTERRES
    41   19   21 2    
    42   20   84 1    
    43   20   85 1    
    44   22   23 am   BACKBONE|DICT|INTERRES
    45   22   86 1    
    46   23   24 2    
    47   23   25 1    
    48   25   26 1    
    49   25   27 1    
    50   25   87 1    
    51   26   88 1    
    52   26   89 1    
    53   26   90 1    
    54   27   28 am   BACKBONE|DICT|INTERRES
    55   27   91 1    
    56   28   29 2    
    57   28   30 1    
    58   30   31 1    
    59   30   32 1    
    60   30   92 1    
    61   31   93 1    
    62   31   94 1    
    63   31   95 1    
    64   32   33 am   BACKBONE|DICT|INTERRES
    65   32   96 1    
    66   33   34 2    
    67   33   35 1    
    68   35   36 1    
    69   35   37 1    
    70   35   97 1    
    71   36   98 1    
    72   36   99 1    
    73   36  100 1    
    74   37   38 am   BACKBONE|DICT|INTERRES
    75   37  101 1    
    76   38   39 2    
    77   38   40 1    
    78   40   41 1    
    79   40   42 1    
    80   40  102 1    
    81   41  103 1    
    82   41  104 1    
    83   41  105 1    
    84   42   43 am   BACKBONE|DICT|INTERRES
    85   42  106 1    
    86   43   44 2    
    87   43   45 1    
    88   45   46 1    
    89   45   49 1    
    90   45  107 1    
    91   46   47 1    
    92   46  108 1    
    93   46  109 1    
    94   47   48 1    
    95   48  110 1    
    96   48  111 1    
    97   49   50 am   BACKBONE|DICT|INTERRES
    98   49  112 1    
    99   50   51 2    
   100   50   52 1    
   101   52   53 1    
   102   52   54 1    
   103   52  113 1    
   104   53  114 1    
   105   53  115 1    
   106   53  116 1    
   107   54   55 am   BACKBONE|DICT|INTERRES
   108   54  117 1    
   109   55   56 2    
   110   55   57 1    
   111   57   58 1    
   112   57   59 1    
   113   57  118 1    
   114   58  119 1    
   115   58  120 1    
   116   58  121 1    
   117   59   60 am   BACKBONE|DICT|INTERRES
   118   59  122 1    
   119   60   61 2    
   120   60   62 1    
   121   62   63 1    
   122   62   64 1    
   123   62  123 1    
   124   63  124 1    
   125   63  125 1    
   126   63  126 1    
   127   64   65 am   BACKBONE|DICT|INTERRES
   128   64  127 1    
   129   65   66 2    
@<TRIPOS>SUBSTRUCTURE
     1 UNK         1 GROUP             0       ****    0 ROOT    
