@<TRIPOS>MOLECULE
3R135
127   129    1
SMALL
USER_CHARGES


@<TRIPOS>ATOM
      1 CA        -79.8260   23.1149  -70.8976 C.3       0 UNK        -0.1998 
      2 C         -80.5337   23.9716  -71.9354 C.2       0 UNK         0.4909 
      3 O         -80.0691   24.0478  -73.0733 O.2       0 UNK        -0.5240 
      4 N         -81.6650   24.5838  -71.5506 N.am      1 UNK        -0.4739 
      5 CA        -82.5118   25.5342  -72.3004 C.3       1 UNK         0.0864 
      6 C6        -82.0961   27.0192  -72.1069 C.3       11 UNK        -0.0881 
      7 S7        -80.4575   27.4630  -72.7754 S.3       11 UNK        -0.2682 
      8 C8        -79.8022   28.4795  -71.4159 C.3       11 UNK         0.0289 
      9 C9        -78.4343   29.0290  -71.7785 C.ar      11 UNK        -0.0687 
     10 C10       -78.3288   30.0661  -72.7094 C.ar      11 UNK        -0.0823 
     11 C11       -77.0750   30.5101  -73.1396 C.ar      11 UNK        -0.0830 
     12 C12       -75.9257   29.9515  -72.5728 C.ar      11 UNK        -0.1021 
     13 C13       -76.0175   28.9432  -71.6090 C.ar      11 UNK        -0.0753 
     14 C14       -77.2767   28.4793  -71.2197 C.ar      11 UNK        -0.0933 
     15 C15       -74.7510   28.3394  -71.0217 C.3       11 UNK         0.0166 
     16 S16       -73.7947   29.5907  -70.1051 S.3       11 UNK        -0.2615 
     17 C17       -72.0773   29.0473  -70.3979 C.3       11 UNK        -0.0865 
     18 CA        -71.4259   29.7695  -71.6097 C.3       10 UNK         0.0862 
     19 C         -69.8852   29.5367  -71.6386 C.2       10 UNK         0.5551 
     20 N         -69.3120   28.9168  -72.6641 N.am      10 UNK        -0.7319 
     21 O         -69.1921   29.9362  -70.7063 O.2       10 UNK        -0.5018 
     22 N         -72.1126   29.4263  -72.8636 N.am      10 UNK        -0.4509 
     23 C         -72.0809   30.1360  -73.9978 C.2       10 UNK         0.4899 
     24 O         -71.5543   31.2448  -74.0978 O.2       10 UNK        -0.4839 
     25 CA        -72.7520   29.4807  -75.2257 C.3       9 UNK         0.0222 
     26 CB        -72.1736   29.9906  -76.5616 C.3       9 UNK        -0.1966 
     27 N         -72.7403   28.0096  -75.1860 N.am      9 UNK        -0.4218 
     28 C         -71.6638   27.2108  -75.1006 C.2       9 UNK         0.5020 
     29 O         -70.5040   27.6223  -75.0539 O.2       9 UNK        -0.5274 
     30 CA        -71.9212   25.7032  -75.0055 C.3       8 UNK         0.0270 
     31 CB        -72.3445   25.3171  -73.5766 C.3       8 UNK        -0.1976 
     32 N         -72.9476   25.2723  -75.9576 N.am      8 UNK        -0.4313 
     33 C         -72.7359   24.4093  -76.9594 C.2       8 UNK         0.5041 
     34 O         -71.6464   23.8856  -77.1986 O.2       8 UNK        -0.5577 
     35 CA        -73.9393   24.0431  -77.8419 C.3       7 UNK         0.0284 
     36 CB        -74.7238   22.8728  -77.2259 C.3       7 UNK        -0.1958 
     37 N         -74.8526   25.1574  -78.1004 N.am      7 UNK        -0.4454 
     38 C         -74.5839   26.1886  -78.9140 C.2       7 UNK         0.5089 
     39 O         -73.4955   26.3661  -79.4612 O.2       7 UNK        -0.5125 
     40 CA        -75.7300   27.1751  -79.1839 C.3       6 UNK         0.0408 
     41 CB        -76.7159   26.5848  -80.2055 C.3       6 UNK        -0.1791 
     42 N         -76.4477   27.4987  -77.9518 N.am      6 UNK        -0.4762 
     43 C         -76.2815   28.6270  -77.2478 C.2       6 UNK         0.5007 
     44 O         -75.5617   29.5578  -77.6094 O.2       6 UNK        -0.5032 
     45 CA        -77.0182   28.7321  -75.8958 C.3       5 UNK         0.0783 
     46 C46       -78.2943   29.6127  -75.9917 C.3       11 UNK        -0.0857 
     47 S47       -78.1008   31.4015  -75.6422 S.3       11 UNK        -0.2512 
     48 C48       -76.9281   31.5600  -74.2402 C.3       11 UNK         0.0225 
     49 N         -77.3232   27.4301  -75.2921 N.am      5 UNK        -0.4615 
     50 C         -76.4070   26.5617  -74.8514 C.2       4 UNK         0.5053 
     51 O         -75.1941   26.7647  -74.9064 O.2       4 UNK        -0.5105 
     52 CA        -76.9126   25.2109  -74.3214 C.3       4 UNK         0.0263 
     53 CB        -77.0816   25.2643  -72.7967 C.3       4 UNK        -0.1981 
     54 N         -78.1424   24.7029  -74.9529 N.am      4 UNK        -0.4224 
     55 C         -78.2800   24.4796  -76.2698 C.2       3 UNK         0.4895 
     56 O         -77.4438   24.8417  -77.0994 O.2       3 UNK        -0.5091 
     57 CA        -79.5008   23.7076  -76.7900 C.3       3 UNK         0.0250 
     58 CB        -79.0886   22.2627  -77.1356 C.3       3 UNK        -0.1996 
     59 N         -80.6814   23.6910  -75.9148 N.am      3 UNK        -0.4254 
     60 C         -81.9251   23.5075  -76.3925 C.2       2 UNK         0.5004 
     61 O         -82.1878   23.4570  -77.5956 O.2       2 UNK        -0.5226 
     62 CA        -83.0828   23.3019  -75.3977 C.3       2 UNK         0.0269 
     63 CB        -83.4067   21.8046  -75.2618 C.3       2 UNK        -0.1926 
     64 N         -82.8369   23.8524  -74.0678 N.am      2 UNK        -0.4687 
     65 C         -82.8393   25.1571  -73.7674 C.2       1 UNK         0.5165 
     66 O         -83.1163   26.0332  -74.5891 O.2       1 UNK        -0.5079 
     67 H67       -79.5997   22.1331  -71.3125 H         1 UNK         0.0900 
     68 H68       -78.8888   23.5850  -70.6023 H         1 UNK         0.0900 
     69 H69       -80.4321   22.9727  -70.0033 H         1 UNK         0.0900 
     70 H70       -81.9794   24.4213  -70.6039 H         1 UNK         0.2959 
     71 H71       -83.4850   25.4465  -71.8143 H         1 UNK         0.1079 
     72 H72       -82.8358   27.6867  -72.5528 H         1 UNK         0.0837 
     73 H73       -82.1156   27.2490  -71.0407 H         1 UNK         0.0837 
     74 H74       -80.4869   29.3040  -71.2113 H         1 UNK         0.0685 
     75 H75       -79.7493   27.8790  -70.5064 H         1 UNK         0.0685 
     76 H76       -79.2272   30.4862  -73.1403 H         1 UNK         0.1434 
     77 H77       -74.9497   30.2956  -72.8845 H         1 UNK         0.1329 
     78 H78       -77.3564   27.6789  -70.4970 H         1 UNK         0.1335 
     79 H79       -74.1607   27.9181  -71.8351 H         1 UNK         0.0680 
     80 H80       -74.9833   27.5111  -70.3507 H         1 UNK         0.0680 
     81 H81       -72.0404   27.9631  -70.5194 H         1 UNK         0.1032 
     82 H82       -71.5208   29.2620  -69.4832 H         1 UNK         0.1032 
     83 H83       -71.5524   30.8431  -71.4563 H         1 UNK         0.0461 
     84 H84       -68.3134   28.7844  -72.6573 H         1 UNK         0.3453 
     85 H85       -69.8543   28.5816  -73.4535 H         1 UNK         0.3453 
     86 H86       -72.5544   28.5215  -72.8896 H         1 UNK         0.2984 
     87 H87       -73.8014   29.7749  -75.1889 H         1 UNK         0.0554 
     88 H88       -72.3075   31.0683  -76.6614 H         1 UNK         0.0847 
     89 H89       -72.6736   29.5253  -77.4113 H         1 UNK         0.0847 
     90 H90       -71.1060   29.7851  -76.6455 H         1 UNK         0.0847 
     91 H91       -73.6600   27.5698  -75.1470 H         1 UNK         0.3141 
     92 H92       -70.9716   25.2058  -75.2139 H         1 UNK         0.0743 
     93 H93       -73.2939   25.7703  -73.2905 H         1 UNK         0.0784 
     94 H94       -72.4509   24.2367  -73.4784 H         1 UNK         0.0784 
     95 H95       -71.5969   25.6350  -72.8483 H         1 UNK         0.0784 
     96 H96       -73.8730   25.6717  -75.8377 H         1 UNK         0.3213 
     97 H97       -73.5452   23.7091  -78.8044 H         1 UNK         0.0855 
     98 H98       -75.1617   23.1394  -76.2642 H         1 UNK         0.0814 
     99 H99       -74.0747   22.0117  -77.0611 H         1 UNK         0.0814 
    100 H100      -75.5316   22.5481  -77.8820 H         1 UNK         0.0814 
    101 H101      -75.7931   25.0703  -77.7178 H         1 UNK         0.3105 
    102 H102      -75.2983   28.0775  -79.6220 H         1 UNK         0.0547 
    103 H103      -77.5017   27.2984  -80.4531 H         1 UNK         0.0837 
    104 H104      -77.1940   25.6773  -79.8342 H         1 UNK         0.0837 
    105 H105      -76.2069   26.3285  -81.1356 H         1 UNK         0.0837 
    106 H106      -77.0231   26.7609  -77.5588 H         1 UNK         0.3020 
    107 H107      -76.2927   29.1975  -75.2343 H         1 UNK         0.1245 
    108 H108      -79.0470   29.2569  -75.2866 H         1 UNK         0.0781 
    109 H109      -78.7718   29.5066  -76.9680 H         1 UNK         0.0781 
    110 H110      -77.0528   32.5478  -73.7952 H         1 UNK         0.0836 
    111 H111      -75.9165   31.5410  -74.6493 H         1 UNK         0.0836 
    112 H112      -78.2977   27.1812  -75.2042 H         1 UNK         0.3022 
    113 H113      -76.1272   24.4842  -74.5347 H         1 UNK         0.0747 
    114 H114      -76.1867   25.6593  -72.3136 H         1 UNK         0.0793 
    115 H115      -77.2576   24.2705  -72.3864 H         1 UNK         0.0793 
    116 H116      -77.9181   25.9003  -72.5081 H         1 UNK         0.0793 
    117 H117      -78.8786   24.4154  -74.3086 H         1 UNK         0.3047 
    118 H118      -79.7712   24.2117  -77.7207 H         1 UNK         0.0822 
    119 H119      -79.8808   21.7359  -77.6676 H         1 UNK         0.0807 
    120 H120      -78.8490   21.6902  -76.2387 H         1 UNK         0.0807 
    121 H121      -78.2079   22.2457  -77.7795 H         1 UNK         0.0807 
    122 H122      -80.5368   23.7576  -74.9103 H         1 UNK         0.2946 
    123 H123      -83.9583   23.8032  -75.8176 H         1 UNK         0.1144 
    124 H124      -82.5709   21.2481  -74.8357 H         1 UNK         0.0793 
    125 H125      -83.6296   21.3630  -76.2343 H         1 UNK         0.0793 
    126 H126      -84.2785   21.6421  -74.6277 H         1 UNK         0.0793 
    127 H127      -82.5788   23.2005  -73.3410 H         1 UNK         0.2896 
@<TRIPOS>BOND
     1    1    2 1    
     2    1   67 1    
     3    1   68 1    
     4    1   69 1    
     5    2    3 2    
     6    2    4 am   BACKBONE|DICT|INTERRES
     7    4    5 1    
     8    4   70 1    
     9    5    6 1    
    10    5   65 1    
    11    5   71 1    
    12    6    7 1    
    13    6   72 1    
    14    6   73 1    
    15    7    8 1    
    16    8    9 1    
    17    8   74 1    
    18    8   75 1    
    19    9   10 ar   
    20    9   14 ar   
    21   10   11 ar   
    22   10   76 1    
    23   11   12 ar   
    24   11   48 1    
    25   12   13 ar   
    26   12   77 1    
    27   13   14 ar   
    28   13   15 1    
    29   14   78 1    
    30   15   16 1    
    31   15   79 1    
    32   15   80 1    
    33   16   17 1    
    34   17   18 1    
    35   17   81 1    
    36   17   82 1    
    37   18   19 1    
    38   18   22 1    
    39   18   83 1    
    40   19   20 am   BACKBONE|DICT|INTERRES
    41   19   21 2    
    42   20   84 1    
    43   20   85 1    
    44   22   23 am   BACKBONE|DICT|INTERRES
    45   22   86 1    
    46   23   24 2    
    47   23   25 1    
    48   25   26 1    
    49   25   27 1    
    50   25   87 1    
    51   26   88 1    
    52   26   89 1    
    53   26   90 1    
    54   27   28 am   BACKBONE|DICT|INTERRES
    55   27   91 1    
    56   28   29 2    
    57   28   30 1    
    58   30   31 1    
    59   30   32 1    
    60   30   92 1    
    61   31   93 1    
    62   31   94 1    
    63   31   95 1    
    64   32   33 am   BACKBONE|DICT|INTERRES
    65   32   96 1    
    66   33   34 2    
    67   33   35 1    
    68   35   36 1    
    69   35   37 1    
    70   35   97 1    
    71   36   98 1    
    72   36   99 1    
    73   36  100 1    
    74   37   38 am   BACKBONE|DICT|INTERRES
    75   37  101 1    
    76   38   39 2    
    77   38   40 1    
    78   40   41 1    
    79   40   42 1    
    80   40  102 1    
    81   41  103 1    
    82   41  104 1    
    83   41  105 1    
    84   42   43 am   BACKBONE|DICT|INTERRES
    85   42  106 1    
    86   43   44 2    
    87   43   45 1    
    88   45   46 1    
    89   45   49 1    
    90   45  107 1    
    91   46   47 1    
    92   46  108 1    
    93   46  109 1    
    94   47   48 1    
    95   48  110 1    
    96   48  111 1    
    97   49   50 am   BACKBONE|DICT|INTERRES
    98   49  112 1    
    99   50   51 2    
   100   50   52 1    
   101   52   53 1    
   102   52   54 1    
   103   52  113 1    
   104   53  114 1    
   105   53  115 1    
   106   53  116 1    
   107   54   55 am   BACKBONE|DICT|INTERRES
   108   54  117 1    
   109   55   56 2    
   110   55   57 1    
   111   57   58 1    
   112   57   59 1    
   113   57  118 1    
   114   58  119 1    
   115   58  120 1    
   116   58  121 1    
   117   59   60 am   BACKBONE|DICT|INTERRES
   118   59  122 1    
   119   60   61 2    
   120   60   62 1    
   121   62   63 1    
   122   62   64 1    
   123   62  123 1    
   124   63  124 1    
   125   63  125 1    
   126   63  126 1    
   127   64   65 am   BACKBONE|DICT|INTERRES
   128   64  127 1    
   129   65   66 2    
@<TRIPOS>SUBSTRUCTURE
     1 UNK         1 GROUP             0       ****    0 ROOT    
