@<TRIPOS>MOLECULE
3R135
127   129    1
SMALL
USER_CHARGES


@<TRIPOS>ATOM
      1 CA        -75.2352   22.9584  -72.9226 C.3       0 UNK        -0.1998 
      2 C         -76.3565   23.0316  -71.8959 C.2       0 UNK         0.4909 
      3 O         -76.1640   22.6292  -70.7483 O.2       0 UNK        -0.5240 
      4 N         -77.5276   23.5300  -72.3022 N.am      1 UNK        -0.4739 
      5 CA        -78.7570   23.5758  -71.5088 C.3       1 UNK         0.0864 
      6 C6        -78.7599   24.6999  -70.4244 C.3       11 UNK        -0.0881 
      7 S7        -79.2259   26.3866  -70.9579 S.3       11 UNK        -0.2682 
      8 C8        -77.7158   26.9173  -71.8097 C.3       11 UNK         0.0289 
      9 C9        -77.8526   28.3208  -72.3772 C.ar      11 UNK        -0.0687 
     10 C10       -78.6949   28.5482  -73.4685 C.ar      11 UNK        -0.0823 
     11 C11       -78.7875   29.8196  -74.0430 C.ar      11 UNK        -0.0830 
     12 C12       -78.0274   30.8635  -73.5086 C.ar      11 UNK        -0.1021 
     13 C13       -77.1911   30.6622  -72.4056 C.ar      11 UNK        -0.0753 
     14 C14       -77.1224   29.3832  -71.8346 C.ar      11 UNK        -0.0933 
     15 C15       -76.4156   31.8725  -71.8746 C.3       11 UNK         0.0166 
     16 S16       -75.1122   31.5594  -70.6292 S.3       11 UNK        -0.2615 
     17 C17       -73.9004   30.5441  -71.5400 C.3       11 UNK        -0.0865 
     18 CA        -73.0849   31.3053  -72.6166 C.3       10 UNK         0.0862 
     19 C         -71.9686   32.1933  -72.0068 C.2       10 UNK         0.5551 
     20 N         -72.2185   33.4853  -71.8461 N.am      10 UNK        -0.7319 
     21 O         -70.8925   31.7155  -71.6518 O.2       10 UNK        -0.5018 
     22 N         -72.5465   30.3315  -73.5651 N.am      10 UNK        -0.4509 
     23 C         -72.1834   30.5496  -74.8300 C.2       10 UNK         0.4899 
     24 O         -72.2205   31.6535  -75.3737 O.2       10 UNK        -0.4839 
     25 CA        -71.7501   29.3154  -75.6482 C.3       9 UNK         0.0222 
     26 CB        -70.2184   29.1480  -75.6446 C.3       9 UNK        -0.1966 
     27 N         -72.4402   28.0683  -75.2708 N.am      9 UNK        -0.4218 
     28 C         -72.3380   27.3526  -74.1390 C.2       9 UNK         0.5020 
     29 O         -71.5798   27.6375  -73.2117 O.2       9 UNK        -0.5274 
     30 CA        -73.2945   26.1615  -73.9730 C.3       8 UNK         0.0270 
     31 CB        -74.6257   26.6392  -73.3735 C.3       8 UNK        -0.1976 
     32 N         -73.5529   25.4411  -75.2199 N.am      8 UNK        -0.4313 
     33 C         -72.6396   24.7120  -75.8776 C.2       8 UNK         0.5041 
     34 O         -71.4867   24.5315  -75.4840 O.2       8 UNK        -0.5577 
     35 CA        -73.0885   24.0851  -77.2055 C.3       7 UNK         0.0284 
     36 CB        -73.8489   22.7731  -76.9552 C.3       7 UNK        -0.1958 
     37 N         -73.9224   25.0090  -77.9769 N.am      7 UNK        -0.4454 
     38 C         -73.4412   26.0473  -78.6761 C.2       7 UNK         0.5089 
     39 O         -72.2414   26.2856  -78.8137 O.2       7 UNK        -0.5125 
     40 CA        -74.4708   26.9913  -79.3222 C.3       6 UNK         0.0408 
     41 CB        -74.7917   26.5369  -80.7547 C.3       6 UNK        -0.1791 
     42 N         -75.7156   27.1043  -78.5570 N.am      6 UNK        -0.4762 
     43 C         -75.8207   27.6763  -77.3478 C.2       6 UNK         0.5007 
     44 O         -74.8729   28.1784  -76.7455 O.2       6 UNK        -0.5032 
     45 CA        -77.2093   27.6316  -76.6839 C.3       5 UNK         0.0783 
     46 C46       -78.0678   28.8396  -77.1369 C.3       11 UNK        -0.0857 
     47 S47       -79.7694   28.7898  -76.4753 S.3       11 UNK        -0.2512 
     48 C48       -79.7336   30.0998  -75.2079 C.3       11 UNK         0.0225 
     49 N         -77.8855   26.3516  -76.9173 N.am      5 UNK        -0.4615 
     50 C         -77.4709   25.1533  -76.4945 C.2       4 UNK         0.5053 
     51 O         -76.4145   24.9795  -75.8822 O.2       4 UNK        -0.5105 
     52 CA        -78.3920   23.9627  -76.8275 C.3       4 UNK         0.0263 
     53 CB        -77.8775   22.6294  -76.2545 C.3       4 UNK        -0.1981 
     54 N         -79.7756   24.1869  -76.3849 N.am      4 UNK        -0.4224 
     55 C         -80.6837   24.9133  -77.0576 C.2       3 UNK         0.4895 
     56 O         -80.4147   25.5077  -78.1030 O.2       3 UNK        -0.5091 
     57 CA        -82.1230   25.0042  -76.5153 C.3       3 UNK         0.0250 
     58 CB        -83.1144   24.3922  -77.5207 C.3       3 UNK        -0.1996 
     59 N         -82.3047   24.3413  -75.2236 N.am      3 UNK        -0.4254 
     60 C         -82.2079   24.9402  -74.0299 C.2       2 UNK         0.5004 
     61 O         -81.9640   26.1381  -73.8808 O.2       2 UNK        -0.5226 
     62 CA        -82.3937   24.0515  -72.7803 C.3       2 UNK         0.0269 
     63 CB        -82.9732   22.6485  -73.0776 C.3       2 UNK        -0.1926 
     64 N         -81.1497   23.9333  -72.0088 N.am      2 UNK        -0.4687 
     65 C         -79.9550   23.5476  -72.4810 C.2       1 UNK         0.5165 
     66 O         -79.7773   23.1746  -73.6448 O.2       1 UNK        -0.5079 
     67 H67       -74.3574   23.4922  -72.5605 H         1 UNK         0.0900 
     68 H68       -75.5273   23.3935  -73.8776 H         1 UNK         0.0900 
     69 H69       -74.9536   21.9204  -73.0969 H         1 UNK         0.0900 
     70 H70       -77.6656   23.7791  -73.2734 H         1 UNK         0.2959 
     71 H71       -78.8184   22.6223  -70.9789 H         1 UNK         0.1079 
     72 H72       -77.7902   24.7482  -69.9268 H         1 UNK         0.0837 
     73 H73       -79.4590   24.4214  -69.6344 H         1 UNK         0.0837 
     74 H74       -76.8678   26.8503  -71.1265 H         1 UNK         0.0685 
     75 H75       -77.5166   26.2311  -72.6321 H         1 UNK         0.0685 
     76 H76       -79.2804   27.7300  -73.8672 H         1 UNK         0.1434 
     77 H77       -78.0995   31.8510  -73.9446 H         1 UNK         0.1329 
     78 H78       -76.4967   29.2014  -70.9730 H         1 UNK         0.1335 
     79 H79       -75.9723   32.4104  -72.7131 H         1 UNK         0.0680 
     80 H80       -77.1361   32.5587  -71.4275 H         1 UNK         0.0680 
     81 H81       -74.4434   29.7225  -72.0066 H         1 UNK         0.1032 
     82 H82       -73.2334   30.0692  -70.8174 H         1 UNK         0.1032 
     83 H83       -73.7643   31.9467  -73.1799 H         1 UNK         0.0461 
     84 H84       -71.5099   34.0762  -71.4400 H         1 UNK         0.3453 
     85 H85       -73.1072   33.8790  -72.1131 H         1 UNK         0.3453 
     86 H86       -72.3549   29.4060  -73.1959 H         1 UNK         0.2984 
     87 H87       -72.0549   29.5070  -76.6783 H         1 UNK         0.0554 
     88 H88       -69.9114   28.3004  -76.2573 H         1 UNK         0.0847 
     89 H89       -69.8245   28.9968  -74.6393 H         1 UNK         0.0847 
     90 H90       -69.7315   30.0357  -76.0502 H         1 UNK         0.0847 
     91 H91       -73.1986   27.8161  -75.9004 H         1 UNK         0.3141 
     92 H92       -72.8342   25.4619  -73.2722 H         1 UNK         0.0743 
     93 H93       -75.1218   27.3704  -74.0129 H         1 UNK         0.0784 
     94 H94       -75.3107   25.8070  -73.2265 H         1 UNK         0.0784 
     95 H95       -74.4706   27.1081  -72.4010 H         1 UNK         0.0784 
     96 H96       -74.5011   25.4744  -75.5828 H         1 UNK         0.3213 
     97 H97       -72.1948   23.8519  -77.7892 H         1 UNK         0.0855 
     98 H98       -74.7132   22.9232  -76.3093 H         1 UNK         0.0814 
     99 H99       -73.2050   22.0421  -76.4646 H         1 UNK         0.0814 
    100 H100      -74.1948   22.3264  -77.8874 H         1 UNK         0.0814 
    101 H101      -74.9232   24.9058  -77.8929 H         1 UNK         0.3105 
    102 H102      -74.0190   27.9843  -79.3740 H         1 UNK         0.0547 
    103 H103      -73.8828   26.4691  -81.3544 H         1 UNK         0.0837 
    104 H104      -75.2667   25.5552  -80.7726 H         1 UNK         0.0837 
    105 H105      -75.4552   27.2415  -81.2562 H         1 UNK         0.0837 
    106 H106      -76.5478   26.7110  -78.9734 H         1 UNK         0.3020 
    107 H107      -77.0450   27.7154  -75.6080 H         1 UNK         0.1245 
    108 H108      -77.5914   29.7769  -76.8424 H         1 UNK         0.0781 
    109 H109      -78.1450   28.8688  -78.2256 H         1 UNK         0.0781 
    110 H110      -79.4810   31.0438  -75.6936 H         1 UNK         0.0836 
    111 H111      -80.7413   30.2210  -74.8089 H         1 UNK         0.0836 
    112 H112      -78.7766   26.3949  -77.4025 H         1 UNK         0.3022 
    113 H113      -78.3921   23.8608  -77.9148 H         1 UNK         0.0747 
    114 H114      -78.5779   21.8168  -76.4473 H         1 UNK         0.0793 
    115 H115      -76.9308   22.3498  -76.7153 H         1 UNK         0.0793 
    116 H116      -77.7136   22.6801  -75.1789 H         1 UNK         0.0793 
    117 H117      -80.0263   23.7828  -75.4862 H         1 UNK         0.3047 
    118 H118      -82.3572   26.0666  -76.4160 H         1 UNK         0.0822 
    119 H119      -84.1435   24.4962  -77.1761 H         1 UNK         0.0807 
    120 H120      -82.9204   23.3316  -77.6857 H         1 UNK         0.0807 
    121 H121      -83.0492   24.8898  -78.4894 H         1 UNK         0.0807 
    122 H122      -82.4770   23.3462  -75.2454 H         1 UNK         0.2946 
    123 H123      -83.1098   24.5766  -72.1457 H         1 UNK         0.1144 
    124 H124      -83.9201   22.7170  -73.6151 H         1 UNK         0.0793 
    125 H125      -83.1750   22.1092  -72.1519 H         1 UNK         0.0793 
    126 H126      -82.2946   22.0336  -73.6698 H         1 UNK         0.0793 
    127 H127      -81.1920   24.2799  -71.0605 H         1 UNK         0.2896 
@<TRIPOS>BOND
     1    1    2 1    
     2    1   67 1    
     3    1   68 1    
     4    1   69 1    
     5    2    3 2    
     6    2    4 am   BACKBONE|DICT|INTERRES
     7    4    5 1    
     8    4   70 1    
     9    5    6 1    
    10    5   65 1    
    11    5   71 1    
    12    6    7 1    
    13    6   72 1    
    14    6   73 1    
    15    7    8 1    
    16    8    9 1    
    17    8   74 1    
    18    8   75 1    
    19    9   10 ar   
    20    9   14 ar   
    21   10   11 ar   
    22   10   76 1    
    23   11   12 ar   
    24   11   48 1    
    25   12   13 ar   
    26   12   77 1    
    27   13   14 ar   
    28   13   15 1    
    29   14   78 1    
    30   15   16 1    
    31   15   79 1    
    32   15   80 1    
    33   16   17 1    
    34   17   18 1    
    35   17   81 1    
    36   17   82 1    
    37   18   19 1    
    38   18   22 1    
    39   18   83 1    
    40   19   20 am   BACKBONE|DICT|INTERRES
    41   19   21 2    
    42   20   84 1    
    43   20   85 1    
    44   22   23 am   BACKBONE|DICT|INTERRES
    45   22   86 1    
    46   23   24 2    
    47   23   25 1    
    48   25   26 1    
    49   25   27 1    
    50   25   87 1    
    51   26   88 1    
    52   26   89 1    
    53   26   90 1    
    54   27   28 am   BACKBONE|DICT|INTERRES
    55   27   91 1    
    56   28   29 2    
    57   28   30 1    
    58   30   31 1    
    59   30   32 1    
    60   30   92 1    
    61   31   93 1    
    62   31   94 1    
    63   31   95 1    
    64   32   33 am   BACKBONE|DICT|INTERRES
    65   32   96 1    
    66   33   34 2    
    67   33   35 1    
    68   35   36 1    
    69   35   37 1    
    70   35   97 1    
    71   36   98 1    
    72   36   99 1    
    73   36  100 1    
    74   37   38 am   BACKBONE|DICT|INTERRES
    75   37  101 1    
    76   38   39 2    
    77   38   40 1    
    78   40   41 1    
    79   40   42 1    
    80   40  102 1    
    81   41  103 1    
    82   41  104 1    
    83   41  105 1    
    84   42   43 am   BACKBONE|DICT|INTERRES
    85   42  106 1    
    86   43   44 2    
    87   43   45 1    
    88   45   46 1    
    89   45   49 1    
    90   45  107 1    
    91   46   47 1    
    92   46  108 1    
    93   46  109 1    
    94   47   48 1    
    95   48  110 1    
    96   48  111 1    
    97   49   50 am   BACKBONE|DICT|INTERRES
    98   49  112 1    
    99   50   51 2    
   100   50   52 1    
   101   52   53 1    
   102   52   54 1    
   103   52  113 1    
   104   53  114 1    
   105   53  115 1    
   106   53  116 1    
   107   54   55 am   BACKBONE|DICT|INTERRES
   108   54  117 1    
   109   55   56 2    
   110   55   57 1    
   111   57   58 1    
   112   57   59 1    
   113   57  118 1    
   114   58  119 1    
   115   58  120 1    
   116   58  121 1    
   117   59   60 am   BACKBONE|DICT|INTERRES
   118   59  122 1    
   119   60   61 2    
   120   60   62 1    
   121   62   63 1    
   122   62   64 1    
   123   62  123 1    
   124   63  124 1    
   125   63  125 1    
   126   63  126 1    
   127   64   65 am   BACKBONE|DICT|INTERRES
   128   64  127 1    
   129   65   66 2    
@<TRIPOS>SUBSTRUCTURE
     1 UNK         1 GROUP             0       ****    0 ROOT    
