@<TRIPOS>MOLECULE
3R135
127   129    1
SMALL
USER_CHARGES


@<TRIPOS>ATOM
      1 CA        -83.6104   26.4855  -76.0371 C.3       0 UNK        -0.1998 
      2 C         -82.3015   27.2598  -76.0249 C.2       0 UNK         0.4909 
      3 O         -81.7437   27.5339  -77.0881 O.2       0 UNK        -0.5240 
      4 N         -81.8036   27.6008  -74.8278 N.am      1 UNK        -0.4739 
      5 CA        -80.5358   28.2998  -74.5804 C.3       1 UNK         0.0864 
      6 C6        -80.3450   28.5447  -73.0635 C.3       11 UNK        -0.0881 
      7 S7        -79.0763   29.7984  -72.6888 S.3       11 UNK        -0.2682 
      8 C8        -78.8046   29.4738  -70.9171 C.3       11 UNK         0.0289 
      9 C9        -77.4319   28.8747  -70.6383 C.ar      11 UNK        -0.0687 
     10 C10       -77.1418   27.5514  -70.9907 C.ar      11 UNK        -0.0823 
     11 C11       -75.8974   26.9901  -70.6796 C.ar      11 UNK        -0.0830 
     12 C12       -74.9384   27.7680  -70.0204 C.ar      11 UNK        -0.1021 
     13 C13       -75.2221   29.0857  -69.6472 C.ar      11 UNK        -0.0753 
     14 C14       -76.4677   29.6334  -69.9677 C.ar      11 UNK        -0.0933 
     15 C15       -74.2235   29.8810  -68.8124 C.3       11 UNK         0.0166 
     16 S16       -72.9619   30.7391  -69.8071 S.3       11 UNK        -0.2615 
     17 C17       -73.9066   32.1345  -70.5192 C.3       11 UNK        -0.0865 
     18 CA        -73.7968   32.2992  -72.0660 C.3       10 UNK         0.0862 
     19 C         -72.4965   32.9802  -72.5947 C.2       10 UNK         0.5551 
     20 N         -71.5212   33.2808  -71.7467 N.am      10 UNK        -0.7319 
     21 O         -72.3988   33.2982  -73.7781 O.2       10 UNK        -0.5018 
     22 N         -74.2173   31.0961  -72.8061 N.am      10 UNK        -0.4509 
     23 C         -73.4517   30.0706  -73.2096 C.2       10 UNK         0.4899 
     24 O         -72.2312   29.9987  -73.0507 O.2       10 UNK        -0.4839 
     25 CA        -74.1633   28.8850  -73.8861 C.3       9 UNK         0.0222 
     26 CB        -75.6842   29.0642  -74.0913 C.3       9 UNK        -0.1966 
     27 N         -73.4947   28.5047  -75.1334 N.am      9 UNK        -0.4218 
     28 C         -73.3596   29.2447  -76.2454 C.2       9 UNK         0.5020 
     29 O         -73.8451   30.3677  -76.3902 O.2       9 UNK        -0.5274 
     30 CA        -72.5339   28.6420  -77.4034 C.3       8 UNK         0.0270 
     31 CB        -71.1758   29.3550  -77.5203 C.3       8 UNK        -0.1976 
     32 N         -72.3048   27.1936  -77.3108 N.am      8 UNK        -0.4313 
     33 C         -73.2683   26.2666  -77.3785 C.2       8 UNK         0.5041 
     34 O         -74.4595   26.5396  -77.5384 O.2       8 UNK        -0.5577 
     35 CA        -72.8430   24.8021  -77.2024 C.3       7 UNK         0.0284 
     36 CB        -72.0996   24.5853  -75.8657 C.3       7 UNK        -0.1958 
     37 N         -74.0572   23.9962  -77.2318 N.am      7 UNK        -0.4454 
     38 C         -74.1542   22.6667  -77.3164 C.2       7 UNK         0.5089 
     39 O         -73.1950   21.9135  -77.4945 O.2       7 UNK        -0.5125 
     40 CA        -75.5762   22.1023  -77.1310 C.3       6 UNK         0.0408 
     41 CB        -75.6124   20.5699  -76.9538 C.3       6 UNK        -0.1791 
     42 N         -76.2814   22.7872  -76.0388 N.am      6 UNK        -0.4762 
     43 C         -75.9388   22.8174  -74.7389 C.2       6 UNK         0.5007 
     44 O         -75.0248   22.1515  -74.2513 O.2       6 UNK        -0.5032 
     45 CA        -76.7626   23.7501  -73.8248 C.3       5 UNK         0.0783 
     46 C46       -76.1307   25.1656  -73.7163 C.3       11 UNK        -0.0857 
     47 S47       -74.7422   25.2449  -72.5405 S.3       11 UNK        -0.2512 
     48 C48       -75.6145   25.5193  -70.9645 C.3       11 UNK         0.0225 
     49 N         -78.1625   23.8428  -74.2414 N.am      5 UNK        -0.4615 
     50 C         -79.0652   22.8544  -74.1996 C.2       4 UNK         0.5053 
     51 O         -78.8342   21.7287  -73.7587 O.2       4 UNK        -0.5105 
     52 CA        -80.4593   23.1820  -74.7573 C.3       4 UNK         0.0263 
     53 CB        -81.3075   23.9270  -73.7127 C.3       4 UNK        -0.1981 
     54 N         -80.3630   23.9876  -75.9765 N.am      4 UNK        -0.4224 
     55 C         -80.1848   23.4814  -77.2053 C.2       3 UNK         0.4895 
     56 O         -80.1693   22.2754  -77.4522 O.2       3 UNK        -0.5091 
     57 CA        -79.9835   24.4798  -78.3603 C.3       3 UNK         0.0250 
     58 CB        -81.3064   24.7250  -79.1034 C.3       3 UNK        -0.1996 
     59 N         -79.4178   25.7612  -77.9275 N.am      3 UNK        -0.4254 
     60 C         -78.1385   25.9236  -77.5570 C.2       2 UNK         0.5004 
     61 O         -77.3123   25.0112  -77.5550 O.2       2 UNK        -0.5226 
     62 CA        -77.7245   27.3164  -77.0455 C.3       2 UNK         0.0269 
     63 CB        -77.2899   28.2159  -78.2131 C.3       2 UNK        -0.1926 
     64 N         -78.7654   28.0023  -76.2699 N.am      2 UNK        -0.4687 
     65 C         -79.3598   27.5034  -75.1778 C.2       1 UNK         0.5165 
     66 O         -79.0663   26.4158  -74.6827 O.2       1 UNK        -0.5079 
     67 H67       -83.4388   25.4630  -76.3718 H         1 UNK         0.0900 
     68 H68       -84.3176   26.9547  -76.7204 H         1 UNK         0.0900 
     69 H69       -84.0700   26.4470  -75.0496 H         1 UNK         0.0900 
     70 H70       -82.3127   27.3308  -73.9986 H         1 UNK         0.2959 
     71 H71       -80.5995   29.2671  -75.0834 H         1 UNK         0.1079 
     72 H72       -81.2779   28.9054  -72.6267 H         1 UNK         0.0837 
     73 H73       -80.1129   27.6130  -72.5430 H         1 UNK         0.0837 
     74 H74       -78.9250   30.4154  -70.3792 H         1 UNK         0.0685 
     75 H75       -79.5754   28.8098  -70.5235 H         1 UNK         0.0685 
     76 H76       -77.8957   26.9541  -71.4847 H         1 UNK         0.1434 
     77 H77       -73.9836   27.3329  -69.7578 H         1 UNK         0.1329 
     78 H78       -76.7039   30.6423  -69.6602 H         1 UNK         0.1335 
     79 H79       -74.7428   30.6062  -68.1838 H         1 UNK         0.0680 
     80 H80       -73.7140   29.2050  -68.1241 H         1 UNK         0.0680 
     81 H81       -73.6105   33.0533  -70.0104 H         1 UNK         0.1032 
     82 H82       -74.9578   32.0146  -70.2626 H         1 UNK         0.1032 
     83 H83       -74.5643   33.0312  -72.3215 H         1 UNK         0.0461 
     84 H84       -70.6929   33.7411  -72.0899 H         1 UNK         0.3453 
     85 H85       -71.5775   32.9947  -70.7817 H         1 UNK         0.3453 
     86 H86       -75.2014   31.0486  -73.0224 H         1 UNK         0.2984 
     87 H87       -74.0312   28.0453  -73.2037 H         1 UNK         0.0554 
     88 H88       -76.1340   28.1477  -74.4669 H         1 UNK         0.0847 
     89 H89       -75.9237   29.8653  -74.7907 H         1 UNK         0.0847 
     90 H90       -76.1821   29.2837  -73.1483 H         1 UNK         0.0847 
     91 H91       -73.0232   27.6130  -75.1162 H         1 UNK         0.3141 
     92 H92       -73.0958   28.8277  -78.3214 H         1 UNK         0.0743 
     93 H93       -70.5585   29.1941  -76.6355 H         1 UNK         0.0784 
     94 H94       -70.6173   29.0091  -78.3903 H         1 UNK         0.0784 
     95 H95       -71.3084   30.4322  -77.6318 H         1 UNK         0.0784 
     96 H96       -71.3479   26.8950  -77.1852 H         1 UNK         0.3213 
     97 H97       -72.2045   24.5198  -78.0417 H         1 UNK         0.0855 
     98 H98       -72.7134   24.8808  -75.0135 H         1 UNK         0.0814 
     99 H99       -71.1734   25.1583  -75.8204 H         1 UNK         0.0814 
    100 H100      -71.8260   23.5396  -75.7248 H         1 UNK         0.0814 
    101 H101      -74.9062   24.5536  -77.1834 H         1 UNK         0.3105 
    102 H102      -76.1239   22.3418  -78.0436 H         1 UNK         0.0547 
    103 H103      -75.2061   20.0683  -77.8328 H         1 UNK         0.0837 
    104 H104      -75.0241   20.2436  -76.0960 H         1 UNK         0.0837 
    105 H105      -76.6326   20.2112  -76.8180 H         1 UNK         0.0837 
    106 H106      -77.0014   23.4337  -76.3473 H         1 UNK         0.3020 
    107 H107      -76.7676   23.2922  -72.8332 H         1 UNK         0.1245 
    108 H108      -76.8718   25.8921  -73.3843 H         1 UNK         0.0781 
    109 H109      -75.7920   25.5242  -74.6906 H         1 UNK         0.0781 
    110 H110      -75.0014   25.1099  -70.1602 H         1 UNK         0.0836 
    111 H111      -76.5414   24.9441  -70.9478 H         1 UNK         0.0836 
    112 H112      -78.4727   24.7645  -74.5451 H         1 UNK         0.3022 
    113 H113      -80.9608   22.2391  -74.9867 H         1 UNK         0.0747 
    114 H114      -82.3099   24.1301  -74.0893 H         1 UNK         0.0793 
    115 H115      -81.4174   23.3303  -72.8062 H         1 UNK         0.0793 
    116 H116      -80.8594   24.8776  -73.4223 H         1 UNK         0.0793 
    117 H117      -80.2958   24.9888  -75.8527 H         1 UNK         0.3047 
    118 H118      -79.2840   24.0227  -79.0640 H         1 UNK         0.0822 
    119 H119      -81.1636   25.3832  -79.9606 H         1 UNK         0.0807 
    120 H120      -82.0588   25.1760  -78.4569 H         1 UNK         0.0807 
    121 H121      -81.7208   23.7889  -79.4802 H         1 UNK         0.0807 
    122 H122      -80.0577   26.5457  -77.8499 H         1 UNK         0.2946 
    123 H123      -76.8622   27.1653  -76.3947 H         1 UNK         0.1144 
    124 H124      -76.8546   29.1480  -77.8520 H         1 UNK         0.0793 
    125 H125      -78.1255   28.4617  -78.8693 H         1 UNK         0.0793 
    126 H126      -76.5303   27.7240  -78.8225 H         1 UNK         0.0793 
    127 H127      -79.0944   28.8822  -76.6407 H         1 UNK         0.2896 
@<TRIPOS>BOND
     1    1    2 1    
     2    1   67 1    
     3    1   68 1    
     4    1   69 1    
     5    2    3 2    
     6    2    4 am   BACKBONE|DICT|INTERRES
     7    4    5 1    
     8    4   70 1    
     9    5    6 1    
    10    5   65 1    
    11    5   71 1    
    12    6    7 1    
    13    6   72 1    
    14    6   73 1    
    15    7    8 1    
    16    8    9 1    
    17    8   74 1    
    18    8   75 1    
    19    9   10 ar   
    20    9   14 ar   
    21   10   11 ar   
    22   10   76 1    
    23   11   12 ar   
    24   11   48 1    
    25   12   13 ar   
    26   12   77 1    
    27   13   14 ar   
    28   13   15 1    
    29   14   78 1    
    30   15   16 1    
    31   15   79 1    
    32   15   80 1    
    33   16   17 1    
    34   17   18 1    
    35   17   81 1    
    36   17   82 1    
    37   18   19 1    
    38   18   22 1    
    39   18   83 1    
    40   19   20 am   BACKBONE|DICT|INTERRES
    41   19   21 2    
    42   20   84 1    
    43   20   85 1    
    44   22   23 am   BACKBONE|DICT|INTERRES
    45   22   86 1    
    46   23   24 2    
    47   23   25 1    
    48   25   26 1    
    49   25   27 1    
    50   25   87 1    
    51   26   88 1    
    52   26   89 1    
    53   26   90 1    
    54   27   28 am   BACKBONE|DICT|INTERRES
    55   27   91 1    
    56   28   29 2    
    57   28   30 1    
    58   30   31 1    
    59   30   32 1    
    60   30   92 1    
    61   31   93 1    
    62   31   94 1    
    63   31   95 1    
    64   32   33 am   BACKBONE|DICT|INTERRES
    65   32   96 1    
    66   33   34 2    
    67   33   35 1    
    68   35   36 1    
    69   35   37 1    
    70   35   97 1    
    71   36   98 1    
    72   36   99 1    
    73   36  100 1    
    74   37   38 am   BACKBONE|DICT|INTERRES
    75   37  101 1    
    76   38   39 2    
    77   38   40 1    
    78   40   41 1    
    79   40   42 1    
    80   40  102 1    
    81   41  103 1    
    82   41  104 1    
    83   41  105 1    
    84   42   43 am   BACKBONE|DICT|INTERRES
    85   42  106 1    
    86   43   44 2    
    87   43   45 1    
    88   45   46 1    
    89   45   49 1    
    90   45  107 1    
    91   46   47 1    
    92   46  108 1    
    93   46  109 1    
    94   47   48 1    
    95   48  110 1    
    96   48  111 1    
    97   49   50 am   BACKBONE|DICT|INTERRES
    98   49  112 1    
    99   50   51 2    
   100   50   52 1    
   101   52   53 1    
   102   52   54 1    
   103   52  113 1    
   104   53  114 1    
   105   53  115 1    
   106   53  116 1    
   107   54   55 am   BACKBONE|DICT|INTERRES
   108   54  117 1    
   109   55   56 2    
   110   55   57 1    
   111   57   58 1    
   112   57   59 1    
   113   57  118 1    
   114   58  119 1    
   115   58  120 1    
   116   58  121 1    
   117   59   60 am   BACKBONE|DICT|INTERRES
   118   59  122 1    
   119   60   61 2    
   120   60   62 1    
   121   62   63 1    
   122   62   64 1    
   123   62  123 1    
   124   63  124 1    
   125   63  125 1    
   126   63  126 1    
   127   64   65 am   BACKBONE|DICT|INTERRES
   128   64  127 1    
   129   65   66 2    
@<TRIPOS>SUBSTRUCTURE
     1 UNK         1 GROUP             0       ****    0 ROOT    
