@<TRIPOS>MOLECULE
3R135
127   129    1
SMALL
USER_CHARGES


@<TRIPOS>ATOM
      1 CA        -83.1752   29.0297  -77.8956 C.3       0 UNK        -0.1998 
      2 C         -81.9112   28.1892  -77.7980 C.2       0 UNK         0.4909 
      3 O         -81.4190   27.7020  -78.8157 O.2       0 UNK        -0.5240 
      4 N         -81.3829   28.0122  -76.5796 N.am      1 UNK        -0.4739 
      5 CA        -80.1554   27.2512  -76.3058 C.3       1 UNK         0.0864 
      6 C6        -79.5257   27.6294  -74.9431 C.3       11 UNK        -0.0881 
      7 S7        -79.1308   29.4061  -74.8081 S.3       11 UNK        -0.2682 
      8 C8        -79.4187   29.7139  -73.0345 C.3       11 UNK         0.0289 
      9 C9        -78.2434   29.2575  -72.1794 C.ar      11 UNK        -0.0687 
     10 C10       -78.0773   27.9048  -71.8698 C.ar      11 UNK        -0.0823 
     11 C11       -76.9881   27.4778  -71.1052 C.ar      11 UNK        -0.0830 
     12 C12       -76.0864   28.4207  -70.6037 C.ar      11 UNK        -0.1021 
     13 C13       -76.2473   29.7785  -70.8948 C.ar      11 UNK        -0.0753 
     14 C14       -77.3224   30.1894  -71.6903 C.ar      11 UNK        -0.0933 
     15 C15       -75.2648   30.8049  -70.3505 C.3       11 UNK         0.0166 
     16 S16       -73.8258   31.0005  -71.4472 S.3       11 UNK        -0.2615 
     17 C17       -72.7643   29.5986  -70.9440 C.3       11 UNK        -0.0865 
     18 CA        -71.2550   29.9835  -70.9540 C.3       10 UNK         0.0862 
     19 C         -70.3478   28.9274  -70.2486 C.2       10 UNK         0.5551 
     20 N         -69.0949   28.7614  -70.6547 N.am      10 UNK        -0.7319 
     21 O         -70.7686   28.2754  -69.2959 O.2       10 UNK        -0.5018 
     22 N         -70.7993   30.4167  -72.2897 N.am      10 UNK        -0.4509 
     23 C         -70.7109   29.6428  -73.3790 C.2       10 UNK         0.4899 
     24 O         -70.8742   28.4203  -73.3797 O.2       10 UNK        -0.4839 
     25 CA        -70.3526   30.3683  -74.6900 C.3       9 UNK         0.0222 
     26 CB        -68.8262   30.4597  -74.8527 C.3       9 UNK        -0.1966 
     27 N         -70.9218   29.7085  -75.8699 N.am      9 UNK        -0.4218 
     28 C         -72.2314   29.5328  -76.0979 C.2       9 UNK         0.5020 
     29 O         -73.1158   29.9953  -75.3718 O.2       9 UNK        -0.5274 
     30 CA        -72.5990   28.6995  -77.3434 C.3       8 UNK         0.0270 
     31 CB        -71.8452   27.3557  -77.3759 C.3       8 UNK        -0.1976 
     32 N         -74.0367   28.4272  -77.3926 N.am      8 UNK        -0.4313 
     33 C         -74.9682   29.2826  -77.8395 C.2       8 UNK         0.5041 
     34 O         -74.6985   30.3575  -78.3808 O.2       8 UNK        -0.5577 
     35 CA        -76.4459   28.8818  -77.6324 C.3       7 UNK         0.0284 
     36 CB        -77.3997   29.5381  -78.6543 C.3       7 UNK        -0.1958 
     37 N         -76.6560   27.4300  -77.5671 N.am      7 UNK        -0.4454 
     38 C         -76.4086   26.5244  -78.5253 C.2       7 UNK         0.5089 
     39 O         -76.0509   26.8120  -79.6683 O.2       7 UNK        -0.5125 
     40 CA        -76.5721   25.0424  -78.1267 C.3       6 UNK         0.0408 
     41 CB        -75.6035   24.1219  -78.8988 C.3       6 UNK        -0.1791 
     42 N         -76.4748   24.7857  -76.6796 N.am      6 UNK        -0.4762 
     43 C         -75.4205   25.0233  -75.8817 C.2       6 UNK         0.5007 
     44 O         -74.4108   25.6161  -76.2621 O.2       6 UNK        -0.5032 
     45 CA        -75.4950   24.5542  -74.4121 C.3       5 UNK         0.0783 
     46 C46       -75.6726   25.7634  -73.4631 C.3       11 UNK        -0.0857 
     47 S47       -75.3254   25.3348  -71.7217 S.3       11 UNK        -0.2512 
     48 C48       -76.7797   25.9939  -70.8391 C.3       11 UNK         0.0225 
     49 N         -76.5047   23.5152  -74.1685 N.am      5 UNK        -0.4615 
     50 C         -76.4535   22.2600  -74.6292 C.2       4 UNK         0.5053 
     51 O         -75.5572   21.8497  -75.3670 O.2       4 UNK        -0.5105 
     52 CA        -77.5667   21.2780  -74.2087 C.3       4 UNK         0.0263 
     53 CB        -77.0928   20.3986  -73.0349 C.3       4 UNK        -0.1981 
     54 N         -78.8890   21.8607  -73.9241 N.am      4 UNK        -0.4224 
     55 C         -79.2601   22.6976  -72.9457 C.2       3 UNK         0.4895 
     56 O         -78.4701   23.2022  -72.1486 O.2       3 UNK        -0.5091 
     57 CA        -80.7623   23.0424  -72.8598 C.3       3 UNK         0.0250 
     58 CB        -81.0808   23.9918  -71.6884 C.3       3 UNK        -0.1996 
     59 N         -81.2759   23.6384  -74.0954 N.am      3 UNK        -0.4254 
     60 C         -81.5207   22.9923  -75.2438 C.2       2 UNK         0.5004 
     61 O         -81.3649   21.7786  -75.3868 O.2       2 UNK        -0.5226 
     62 CA        -81.9927   23.8389  -76.4407 C.3       2 UNK         0.0269 
     63 CB        -83.5168   23.7300  -76.6080 C.3       2 UNK        -0.1926 
     64 N         -81.6181   25.2566  -76.3628 N.am      2 UNK        -0.4687 
     65 C         -80.3599   25.7227  -76.3807 C.2       1 UNK         0.5165 
     66 O         -79.3718   24.9903  -76.4194 O.2       1 UNK        -0.5079 
     67 H67       -83.0037   29.8899  -78.5420 H         1 UNK         0.0900 
     68 H68       -83.4973   29.3970  -76.9214 H         1 UNK         0.0900 
     69 H69       -83.9864   28.4396  -78.3212 H         1 UNK         0.0900 
     70 H70       -81.8118   28.4567  -75.7799 H         1 UNK         0.2959 
     71 H71       -79.4346   27.4968  -77.0876 H         1 UNK         0.1079 
     72 H72       -80.2013   27.3467  -74.1339 H         1 UNK         0.0837 
     73 H73       -78.6000   27.0749  -74.7796 H         1 UNK         0.0837 
     74 H74       -79.5876   30.7828  -72.8953 H         1 UNK         0.0685 
     75 H75       -80.3363   29.2221  -72.7087 H         1 UNK         0.0685 
     76 H76       -78.7851   27.1781  -72.2410 H         1 UNK         0.1434 
     77 H77       -75.2491   28.0922  -70.0037 H         1 UNK         0.1329 
     78 H78       -77.4428   31.2379  -71.9264 H         1 UNK         0.1335 
     79 H79       -75.7592   31.7728  -70.2541 H         1 UNK         0.0680 
     80 H80       -74.9431   30.5329  -69.3441 H         1 UNK         0.0680 
     81 H81       -73.0640   29.2766  -69.9458 H         1 UNK         0.1032 
     82 H82       -72.9568   28.7512  -71.6044 H         1 UNK         0.1032 
     83 H83       -71.1535   30.8678  -70.3237 H         1 UNK         0.0461 
     84 H84       -68.5081   28.0872  -70.1890 H         1 UNK         0.3453 
     85 H85       -68.7383   29.2931  -71.4322 H         1 UNK         0.3453 
     86 H86       -70.6171   31.4056  -72.3828 H         1 UNK         0.2984 
     87 H87       -70.7616   31.3801  -74.6496 H         1 UNK         0.0554 
     88 H88       -68.5534   31.0103  -75.7534 H         1 UNK         0.0847 
     89 H89       -68.3665   29.4720  -74.9095 H         1 UNK         0.0847 
     90 H90       -68.3719   30.9811  -74.0091 H         1 UNK         0.0847 
     91 H91       -70.2644   29.2774  -76.5027 H         1 UNK         0.3141 
     92 H92       -72.3179   29.2750  -78.2279 H         1 UNK         0.0743 
     93 H93       -71.9699   26.8024  -76.4437 H         1 UNK         0.0784 
     94 H94       -72.2005   26.7207  -78.1880 H         1 UNK         0.0784 
     95 H95       -70.7756   27.4987  -77.5306 H         1 UNK         0.0784 
     96 H96       -74.3351   27.5595  -76.9595 H         1 UNK         0.3213 
     97 H97       -76.7122   29.2671  -76.6473 H         1 UNK         0.0855 
     98 H98       -77.3448   30.6257  -78.5961 H         1 UNK         0.0814 
     99 H99       -78.4371   29.2606  -78.4687 H         1 UNK         0.0814 
    100 H100      -77.1535   29.2564  -79.6783 H         1 UNK         0.0814 
    101 H101      -76.9217   27.0649  -76.6644 H         1 UNK         0.3105 
    102 H102      -77.5859   24.7649  -78.4174 H         1 UNK         0.0547 
    103 H103      -75.7741   24.1844  -79.9741 H         1 UNK         0.0837 
    104 H104      -74.5619   24.3903  -78.7193 H         1 UNK         0.0837 
    105 H105      -75.7350   23.0785  -78.6120 H         1 UNK         0.0837 
    106 H106      -77.3061   24.3779  -76.2656 H         1 UNK         0.3020 
    107 H107      -74.5202   24.1070  -74.2035 H         1 UNK         0.1245 
    108 H108      -76.6805   26.1663  -73.5603 H         1 UNK         0.0781 
    109 H109      -74.9932   26.5768  -73.7276 H         1 UNK         0.0781 
    110 H110      -76.6467   25.8338  -69.7684 H         1 UNK         0.0836 
    111 H111      -77.6633   25.4227  -71.1232 H         1 UNK         0.0836 
    112 H112      -77.2270   23.7265  -73.4864 H         1 UNK         0.3022 
    113 H113      -77.7241   20.6201  -75.0650 H         1 UNK         0.0747 
    114 H114      -77.8310   19.6361  -72.7866 H         1 UNK         0.0793 
    115 H115      -76.1652   19.8815  -73.2846 H         1 UNK         0.0793 
    116 H116      -76.9024   20.9873  -72.1368 H         1 UNK         0.0793 
    117 H117      -79.6321   21.5710  -74.5559 H         1 UNK         0.3047 
    118 H118      -81.2940   22.1051  -72.6820 H         1 UNK         0.0822 
    119 H119      -82.1522   24.1748  -71.6048 H         1 UNK         0.0807 
    120 H120      -80.5824   24.9556  -71.8011 H         1 UNK         0.0807 
    121 H121      -80.7535   23.5651  -70.7392 H         1 UNK         0.0807 
    122 H122      -81.4204   24.6367  -74.0855 H         1 UNK         0.2946 
    123 H123      -81.5178   23.4196  -77.3308 H         1 UNK         0.1144 
    124 H124      -83.8266   22.6877  -76.6981 H         1 UNK         0.0793 
    125 H125      -83.8554   24.2444  -77.5077 H         1 UNK         0.0793 
    126 H126      -84.0484   24.1555  -75.7560 H         1 UNK         0.0793 
    127 H127      -82.3711   25.9286  -76.3284 H         1 UNK         0.2896 
@<TRIPOS>BOND
     1    1    2 1    
     2    1   67 1    
     3    1   68 1    
     4    1   69 1    
     5    2    3 2    
     6    2    4 am   BACKBONE|DICT|INTERRES
     7    4    5 1    
     8    4   70 1    
     9    5    6 1    
    10    5   65 1    
    11    5   71 1    
    12    6    7 1    
    13    6   72 1    
    14    6   73 1    
    15    7    8 1    
    16    8    9 1    
    17    8   74 1    
    18    8   75 1    
    19    9   10 ar   
    20    9   14 ar   
    21   10   11 ar   
    22   10   76 1    
    23   11   12 ar   
    24   11   48 1    
    25   12   13 ar   
    26   12   77 1    
    27   13   14 ar   
    28   13   15 1    
    29   14   78 1    
    30   15   16 1    
    31   15   79 1    
    32   15   80 1    
    33   16   17 1    
    34   17   18 1    
    35   17   81 1    
    36   17   82 1    
    37   18   19 1    
    38   18   22 1    
    39   18   83 1    
    40   19   20 am   BACKBONE|DICT|INTERRES
    41   19   21 2    
    42   20   84 1    
    43   20   85 1    
    44   22   23 am   BACKBONE|DICT|INTERRES
    45   22   86 1    
    46   23   24 2    
    47   23   25 1    
    48   25   26 1    
    49   25   27 1    
    50   25   87 1    
    51   26   88 1    
    52   26   89 1    
    53   26   90 1    
    54   27   28 am   BACKBONE|DICT|INTERRES
    55   27   91 1    
    56   28   29 2    
    57   28   30 1    
    58   30   31 1    
    59   30   32 1    
    60   30   92 1    
    61   31   93 1    
    62   31   94 1    
    63   31   95 1    
    64   32   33 am   BACKBONE|DICT|INTERRES
    65   32   96 1    
    66   33   34 2    
    67   33   35 1    
    68   35   36 1    
    69   35   37 1    
    70   35   97 1    
    71   36   98 1    
    72   36   99 1    
    73   36  100 1    
    74   37   38 am   BACKBONE|DICT|INTERRES
    75   37  101 1    
    76   38   39 2    
    77   38   40 1    
    78   40   41 1    
    79   40   42 1    
    80   40  102 1    
    81   41  103 1    
    82   41  104 1    
    83   41  105 1    
    84   42   43 am   BACKBONE|DICT|INTERRES
    85   42  106 1    
    86   43   44 2    
    87   43   45 1    
    88   45   46 1    
    89   45   49 1    
    90   45  107 1    
    91   46   47 1    
    92   46  108 1    
    93   46  109 1    
    94   47   48 1    
    95   48  110 1    
    96   48  111 1    
    97   49   50 am   BACKBONE|DICT|INTERRES
    98   49  112 1    
    99   50   51 2    
   100   50   52 1    
   101   52   53 1    
   102   52   54 1    
   103   52  113 1    
   104   53  114 1    
   105   53  115 1    
   106   53  116 1    
   107   54   55 am   BACKBONE|DICT|INTERRES
   108   54  117 1    
   109   55   56 2    
   110   55   57 1    
   111   57   58 1    
   112   57   59 1    
   113   57  118 1    
   114   58  119 1    
   115   58  120 1    
   116   58  121 1    
   117   59   60 am   BACKBONE|DICT|INTERRES
   118   59  122 1    
   119   60   61 2    
   120   60   62 1    
   121   62   63 1    
   122   62   64 1    
   123   62  123 1    
   124   63  124 1    
   125   63  125 1    
   126   63  126 1    
   127   64   65 am   BACKBONE|DICT|INTERRES
   128   64  127 1    
   129   65   66 2    
@<TRIPOS>SUBSTRUCTURE
     1 UNK         1 GROUP             0       ****    0 ROOT    
