@<TRIPOS>MOLECULE
3R135
127   129    1
SMALL
USER_CHARGES


@<TRIPOS>ATOM
      1 CA        -80.8947   21.9357  -71.9625 C.3       0 UNK        -0.1998 
      2 C         -80.9480   23.3660  -72.4742 C.2       0 UNK         0.4909 
      3 O         -80.1994   23.7088  -73.3911 O.2       0 UNK        -0.5240 
      4 N         -81.8393   24.1917  -71.9044 N.am      1 UNK        -0.4739 
      5 CA        -82.0658   25.6293  -72.1560 C.3       1 UNK         0.0864 
      6 C6        -80.8137   26.5149  -71.9245 C.3       11 UNK        -0.0881 
      7 S7        -80.0847   26.3419  -70.2616 S.3       11 UNK        -0.2682 
      8 C8        -79.7397   28.0795  -69.8377 C.3       11 UNK         0.0289 
      9 C9        -78.7319   28.7108  -70.7901 C.ar      11 UNK        -0.0687 
     10 C10       -79.1601   29.5788  -71.8001 C.ar      11 UNK        -0.0823 
     11 C11       -78.2419   30.1710  -72.6730 C.ar      11 UNK        -0.0830 
     12 C12       -76.8788   29.8978  -72.5137 C.ar      11 UNK        -0.1021 
     13 C13       -76.4380   29.0275  -71.5114 C.ar      11 UNK        -0.0753 
     14 C14       -77.3686   28.4368  -70.6525 C.ar      11 UNK        -0.0933 
     15 C15       -74.9558   28.7295  -71.3606 C.3       11 UNK         0.0166 
     16 S16       -74.0761   30.1566  -70.6510 S.3       11 UNK        -0.2615 
     17 C17       -72.3402   29.5956  -70.7148 C.3       11 UNK        -0.0865 
     18 CA        -71.6023   30.0981  -71.9847 C.3       10 UNK         0.0862 
     19 C         -70.0656   29.8641  -71.8781 C.2       10 UNK         0.5551 
     20 N         -69.4316   29.1106  -72.7696 N.am      10 UNK        -0.7319 
     21 O         -69.4318   30.3876  -70.9651 O.2       10 UNK        -0.5018 
     22 N         -72.2130   29.5412  -73.1987 N.am      10 UNK        -0.4509 
     23 C         -72.1581   30.0758  -74.4229 C.2       10 UNK         0.4899 
     24 O         -71.6440   31.1667  -74.6741 O.2       10 UNK        -0.4839 
     25 CA        -72.7882   29.2321  -75.5516 C.3       9 UNK         0.0222 
     26 CB        -72.2199   29.5776  -76.9433 C.3       9 UNK        -0.1966 
     27 N         -72.7208   27.7808  -75.3176 N.am      9 UNK        -0.4218 
     28 C         -71.6158   27.0467  -75.1044 C.2       9 UNK         0.5020 
     29 O         -70.4775   27.5125  -75.0407 O.2       9 UNK        -0.5274 
     30 CA        -71.8182   25.5412  -74.9043 C.3       8 UNK         0.0270 
     31 CB        -72.2833   25.2390  -73.4685 C.3       8 UNK        -0.1976 
     32 N         -72.7872   25.0155  -75.8679 N.am      8 UNK        -0.4313 
     33 C         -72.4502   24.4002  -77.0085 C.2       8 UNK         0.5041 
     34 O         -71.2889   24.1735  -77.3522 O.2       8 UNK        -0.5577 
     35 CA        -73.5984   23.9426  -77.9193 C.3       7 UNK         0.0284 
     36 CB        -74.2555   22.6668  -77.3662 C.3       7 UNK        -0.1958 
     37 N         -74.6218   24.9665  -78.1352 N.am      7 UNK        -0.4454 
     38 C         -74.4583   26.0689  -78.8807 C.2       7 UNK         0.5089 
     39 O         -73.3893   26.3997  -79.3935 O.2       7 UNK        -0.5125 
     40 CA        -75.7054   26.9350  -79.1186 C.3       6 UNK         0.0408 
     41 CB        -76.6412   26.2679  -80.1403 C.3       6 UNK        -0.1791 
     42 N         -76.4337   27.1653  -77.8716 N.am      6 UNK        -0.4762 
     43 C         -76.3391   28.2791  -77.1307 C.2       6 UNK         0.5007 
     44 O         -75.6971   29.2698  -77.4782 O.2       6 UNK        -0.5032 
     45 CA        -77.0537   28.2890  -75.7583 C.3       5 UNK         0.0783 
     46 C46       -78.3400   29.1563  -75.7681 C.3       11 UNK        -0.0857 
     47 S47       -77.9678   30.9027  -75.3902 S.3       11 UNK        -0.2512 
     48 C48       -78.7417   31.1317  -73.7511 C.3       11 UNK         0.0225 
     49 N         -77.3149   26.9452  -75.2377 N.am      5 UNK        -0.4615 
     50 C         -76.3634   26.0939  -74.8375 C.2       4 UNK         0.5053 
     51 O         -75.1593   26.3519  -74.8664 O.2       4 UNK        -0.5105 
     52 CA        -76.8252   24.6996  -74.3900 C.3       4 UNK         0.0263 
     53 CB        -77.0900   24.6894  -72.8767 C.3       4 UNK        -0.1981 
     54 N         -78.0048   24.2019  -75.1116 N.am      4 UNK        -0.4224 
     55 C         -78.0550   23.9938  -76.4376 C.2       3 UNK         0.4895 
     56 O         -77.1418   24.2899  -77.2070 O.2       3 UNK        -0.5091 
     57 CA        -79.3320   23.3661  -77.0131 C.3       3 UNK         0.0250 
     58 CB        -79.3388   21.8482  -76.7720 C.3       3 UNK        -0.1996 
     59 N         -80.5524   23.9538  -76.4649 N.am      3 UNK        -0.4254 
     60 C         -81.0066   25.1844  -76.7456 C.2       2 UNK         0.5004 
     61 O         -80.4502   25.9684  -77.5139 O.2       2 UNK        -0.5226 
     62 CA        -82.2695   25.6213  -75.9965 C.3       2 UNK         0.0269 
     63 CB        -83.5294   24.9221  -76.5385 C.3       2 UNK        -0.1926 
     64 N         -82.0797   25.3333  -74.5803 N.am      2 UNK        -0.4687 
     65 C         -82.6550   25.9474  -73.5475 C.2       1 UNK         0.5165 
     66 O         -83.5739   26.7599  -73.6566 O.2       1 UNK        -0.5079 
     67 H67       -81.1142   21.2401  -72.7719 H         1 UNK         0.0900 
     68 H68       -79.8976   21.7139  -71.5832 H         1 UNK         0.0900 
     69 H69       -81.6104   21.7616  -71.1594 H         1 UNK         0.0900 
     70 H70       -82.4330   23.8100  -71.1811 H         1 UNK         0.2959 
     71 H71       -82.8221   25.9364  -71.4314 H         1 UNK         0.1079 
     72 H72       -80.0373   26.2994  -72.6595 H         1 UNK         0.0837 
     73 H73       -81.0847   27.5602  -72.0777 H         1 UNK         0.0837 
     74 H74       -80.6740   28.6431  -69.8318 H         1 UNK         0.0685 
     75 H75       -79.3525   28.1231  -68.8187 H         1 UNK         0.0685 
     76 H76       -80.2137   29.7999  -71.9018 H         1 UNK         0.1434 
     77 H77       -76.1553   30.3670  -73.1661 H         1 UNK         0.1329 
     78 H78       -77.0352   27.7648  -69.8734 H         1 UNK         0.1335 
     79 H79       -74.7987   27.8560  -70.7257 H         1 UNK         0.0680 
     80 H80       -74.5474   28.4788  -72.3394 H         1 UNK         0.0680 
     81 H81       -71.8520   29.9765  -69.8156 H         1 UNK         0.1032 
     82 H82       -72.2942   28.5075  -70.6399 H         1 UNK         0.1032 
     83 H83       -71.7260   31.1822  -72.0247 H         1 UNK         0.0461 
     84 H84       -69.9246   28.6731  -73.5412 H         1 UNK         0.3453 
     85 H85       -68.4368   28.9803  -72.6792 H         1 UNK         0.3453 
     86 H86       -72.6326   28.6305  -73.1022 H         1 UNK         0.2984 
     87 H87       -73.8472   29.4896  -75.5520 H         1 UNK         0.0554 
     88 H88       -72.3847   30.6282  -77.1851 H         1 UNK         0.0847 
     89 H89       -72.7041   28.9895  -77.7235 H         1 UNK         0.0847 
     90 H90       -71.1468   29.3928  -76.9991 H         1 UNK         0.0847 
     91 H91       -73.6171   27.2995  -75.2775 H         1 UNK         0.3141 
     92 H92       -70.8498   25.0555  -75.0432 H         1 UNK         0.0743 
     93 H93       -73.2335   25.7161  -73.2290 H         1 UNK         0.0784 
     94 H94       -72.4008   24.1669  -73.3108 H         1 UNK         0.0784 
     95 H95       -71.5508   25.5934  -72.7419 H         1 UNK         0.0784 
     96 H96       -73.7649   25.2102  -75.6792 H         1 UNK         0.3213 
     97 H97       -73.1660   23.6985  -78.8923 H         1 UNK         0.0855 
     98 H98       -74.7363   22.8414  -76.4034 H         1 UNK         0.0814 
     99 H99       -73.5167   21.8769  -77.2240 H         1 UNK         0.0814 
    100 H100      -75.0123   22.2828  -78.0506 H         1 UNK         0.0814 
    101 H101      -75.5532   24.7540  -77.7783 H         1 UNK         0.3105 
    102 H102      -75.3757   27.8845  -79.5457 H         1 UNK         0.0547 
    103 H103      -76.1220   26.0831  -81.0817 H         1 UNK         0.0837 
    104 H104      -77.0214   25.3098  -79.7839 H         1 UNK         0.0837 
    105 H105      -77.4984   26.9034  -80.3630 H         1 UNK         0.0837 
    106 H106      -76.9570   26.3790  -77.5044 H         1 UNK         0.3020 
    107 H107      -76.3422   28.7376  -75.0620 H         1 UNK         0.1245 
    108 H108      -79.0546   28.7942  -75.0271 H         1 UNK         0.0781 
    109 H109      -78.8615   29.0956  -76.7255 H         1 UNK         0.0781 
    110 H110      -79.8228   31.0444  -73.8716 H         1 UNK         0.0836 
    111 H111      -78.5536   32.1531  -73.4180 H         1 UNK         0.0836 
    112 H112      -78.2767   26.6415  -75.2131 H         1 UNK         0.3022 
    113 H113      -76.0060   24.0072  -74.5922 H         1 UNK         0.0747 
    114 H114      -77.3592   23.6927  -72.5267 H         1 UNK         0.0793 
    115 H115      -76.2029   24.9998  -72.3226 H         1 UNK         0.0793 
    116 H116      -77.8968   25.3683  -72.6014 H         1 UNK         0.0793 
    117 H117      -78.8106   23.9489  -74.5407 H         1 UNK         0.3047 
    118 H118      -79.3270   23.5389  -78.0917 H         1 UNK         0.0822 
    119 H119      -80.1936   21.3741  -77.2547 H         1 UNK         0.0807 
    120 H120      -79.3765   21.6062  -75.7088 H         1 UNK         0.0807 
    121 H121      -78.4396   21.3845  -77.1806 H         1 UNK         0.0807 
    122 H122      -81.0713   23.3830  -75.8133 H         1 UNK         0.2946 
    123 H123      -82.3781   26.7006  -76.1279 H         1 UNK         0.1144 
    124 H124      -84.4290   25.2913  -76.0458 H         1 UNK         0.0793 
    125 H125      -83.4900   23.8420  -76.3936 H         1 UNK         0.0793 
    126 H126      -83.6475   25.1063  -77.6071 H         1 UNK         0.0793 
    127 H127      -81.3087   24.7104  -74.3436 H         1 UNK         0.2896 
@<TRIPOS>BOND
     1    1    2 1    
     2    1   67 1    
     3    1   68 1    
     4    1   69 1    
     5    2    3 2    
     6    2    4 am   BACKBONE|DICT|INTERRES
     7    4    5 1    
     8    4   70 1    
     9    5    6 1    
    10    5   65 1    
    11    5   71 1    
    12    6    7 1    
    13    6   72 1    
    14    6   73 1    
    15    7    8 1    
    16    8    9 1    
    17    8   74 1    
    18    8   75 1    
    19    9   10 ar   
    20    9   14 ar   
    21   10   11 ar   
    22   10   76 1    
    23   11   12 ar   
    24   11   48 1    
    25   12   13 ar   
    26   12   77 1    
    27   13   14 ar   
    28   13   15 1    
    29   14   78 1    
    30   15   16 1    
    31   15   79 1    
    32   15   80 1    
    33   16   17 1    
    34   17   18 1    
    35   17   81 1    
    36   17   82 1    
    37   18   19 1    
    38   18   22 1    
    39   18   83 1    
    40   19   20 am   BACKBONE|DICT|INTERRES
    41   19   21 2    
    42   20   84 1    
    43   20   85 1    
    44   22   23 am   BACKBONE|DICT|INTERRES
    45   22   86 1    
    46   23   24 2    
    47   23   25 1    
    48   25   26 1    
    49   25   27 1    
    50   25   87 1    
    51   26   88 1    
    52   26   89 1    
    53   26   90 1    
    54   27   28 am   BACKBONE|DICT|INTERRES
    55   27   91 1    
    56   28   29 2    
    57   28   30 1    
    58   30   31 1    
    59   30   32 1    
    60   30   92 1    
    61   31   93 1    
    62   31   94 1    
    63   31   95 1    
    64   32   33 am   BACKBONE|DICT|INTERRES
    65   32   96 1    
    66   33   34 2    
    67   33   35 1    
    68   35   36 1    
    69   35   37 1    
    70   35   97 1    
    71   36   98 1    
    72   36   99 1    
    73   36  100 1    
    74   37   38 am   BACKBONE|DICT|INTERRES
    75   37  101 1    
    76   38   39 2    
    77   38   40 1    
    78   40   41 1    
    79   40   42 1    
    80   40  102 1    
    81   41  103 1    
    82   41  104 1    
    83   41  105 1    
    84   42   43 am   BACKBONE|DICT|INTERRES
    85   42  106 1    
    86   43   44 2    
    87   43   45 1    
    88   45   46 1    
    89   45   49 1    
    90   45  107 1    
    91   46   47 1    
    92   46  108 1    
    93   46  109 1    
    94   47   48 1    
    95   48  110 1    
    96   48  111 1    
    97   49   50 am   BACKBONE|DICT|INTERRES
    98   49  112 1    
    99   50   51 2    
   100   50   52 1    
   101   52   53 1    
   102   52   54 1    
   103   52  113 1    
   104   53  114 1    
   105   53  115 1    
   106   53  116 1    
   107   54   55 am   BACKBONE|DICT|INTERRES
   108   54  117 1    
   109   55   56 2    
   110   55   57 1    
   111   57   58 1    
   112   57   59 1    
   113   57  118 1    
   114   58  119 1    
   115   58  120 1    
   116   58  121 1    
   117   59   60 am   BACKBONE|DICT|INTERRES
   118   59  122 1    
   119   60   61 2    
   120   60   62 1    
   121   62   63 1    
   122   62   64 1    
   123   62  123 1    
   124   63  124 1    
   125   63  125 1    
   126   63  126 1    
   127   64   65 am   BACKBONE|DICT|INTERRES
   128   64  127 1    
   129   65   66 2    
@<TRIPOS>SUBSTRUCTURE
     1 UNK         1 GROUP             0       ****    0 ROOT    
