@<TRIPOS>MOLECULE
3R135
127   129    1
SMALL
USER_CHARGES


@<TRIPOS>ATOM
      1 CA        -82.8921   27.4333  -76.7015 C.3       0 UNK        -0.1998 
      2 C         -81.8152   27.9819  -75.7786 C.2       0 UNK         0.4909 
      3 O         -80.8817   28.6338  -76.2474 O.2       0 UNK        -0.5240 
      4 N         -81.9256   27.7146  -74.4699 N.am      1 UNK        -0.4739 
      5 CA        -80.9670   28.1361  -73.4415 C.3       1 UNK         0.0864 
      6 C6        -81.4975   27.8419  -72.0142 C.3       11 UNK        -0.0881 
      7 S7        -81.0618   29.1670  -70.8411 S.3       11 UNK        -0.2682 
      8 C8        -80.0766   28.2741  -69.5993 C.3       11 UNK         0.0289 
      9 C9        -78.6684   27.9701  -70.0884 C.ar      11 UNK        -0.0687 
     10 C10       -78.2769   26.6558  -70.3548 C.ar      11 UNK        -0.0823 
     11 C11       -76.9646   26.3738  -70.7443 C.ar      11 UNK        -0.0830 
     12 C12       -76.0457   27.4187  -70.8799 C.ar      11 UNK        -0.1021 
     13 C13       -76.4297   28.7466  -70.6423 C.ar      11 UNK        -0.0753 
     14 C14       -77.7425   29.0061  -70.2373 C.ar      11 UNK        -0.0933 
     15 C15       -75.4727   29.9325  -70.7816 C.3       11 UNK         0.0166 
     16 S16       -73.9503   29.6011  -71.7284 S.3       11 UNK        -0.2615 
     17 C17       -73.2786   31.2868  -71.9215 C.3       11 UNK        -0.0865 
     18 CA        -73.5397   31.8768  -73.3328 C.3       10 UNK         0.0862 
     19 C         -73.0434   33.3502  -73.4132 C.2       10 UNK         0.5551 
     20 N         -72.0468   33.6751  -74.2277 N.am      10 UNK        -0.7319 
     21 O         -73.5776   34.2144  -72.7225 O.2       10 UNK        -0.5018 
     22 N         -73.0272   30.9878  -74.3876 N.am      10 UNK        -0.4509 
     23 C         -73.3667   31.0188  -75.6793 C.2       10 UNK         0.4899 
     24 O         -74.1530   31.8341  -76.1608 O.2       10 UNK        -0.4839 
     25 CA        -72.7445   29.9480  -76.5962 C.3       9 UNK         0.0222 
     26 CB        -71.3369   30.3693  -77.0607 C.3       9 UNK        -0.1966 
     27 N         -72.7448   28.5805  -76.0495 N.am      9 UNK        -0.4218 
     28 C         -72.0817   28.0837  -74.9921 C.2       9 UNK         0.5020 
     29 O         -71.3379   28.7483  -74.2692 O.2       9 UNK        -0.5274 
     30 CA        -72.2834   26.5898  -74.6836 C.3       8 UNK         0.0270 
     31 CB        -73.3684   26.3901  -73.6144 C.3       8 UNK        -0.1976 
     32 N         -72.6258   25.8023  -75.8701 N.am      8 UNK        -0.4313 
     33 C         -71.7468   25.4365  -76.8138 C.2       8 UNK         0.5041 
     34 O         -70.5551   25.7477  -76.7784 O.2       8 UNK        -0.5577 
     35 CA        -72.2630   24.6123  -78.0128 C.3       7 UNK         0.0284 
     36 CB        -71.3672   23.3858  -78.2897 C.3       7 UNK        -0.1958 
     37 N         -73.6795   24.2194  -77.9498 N.am      7 UNK        -0.4454 
     38 C         -74.2728   23.3973  -77.0720 C.2       7 UNK         0.5089 
     39 O         -73.6925   22.8593  -76.1283 O.2       7 UNK        -0.5125 
     40 CA        -75.7688   23.1552  -77.3219 C.3       6 UNK         0.0408 
     41 CB        -76.0024   21.9480  -78.2511 C.3       6 UNK        -0.1791 
     42 N         -76.5561   23.0644  -76.0898 N.am      6 UNK        -0.4762 
     43 C         -76.6432   22.0656  -75.1963 C.2       6 UNK         0.5007 
     44 O         -76.0229   21.0036  -75.2647 O.2       6 UNK        -0.5032 
     45 CA        -77.6638   22.2647  -74.0530 C.3       5 UNK         0.0783 
     46 C46       -76.9988   22.7717  -72.7487 C.3       11 UNK        -0.0857 
     47 S47       -76.5696   24.5451  -72.7751 S.3       11 UNK        -0.2512 
     48 C48       -76.5378   24.9366  -70.9990 C.3       11 UNK         0.0225 
     49 N         -78.7966   23.0996  -74.4775 N.am      5 UNK        -0.4615 
     50 C         -79.7542   22.6845  -75.3192 C.2       4 UNK         0.5053 
     51 O         -79.8850   21.5169  -75.6870 O.2       4 UNK        -0.5105 
     52 CA        -80.6925   23.7594  -75.8824 C.3       4 UNK         0.0263 
     53 CB        -81.7861   24.1273  -74.8662 C.3       4 UNK        -0.1981 
     54 N         -79.9426   24.9504  -76.2975 N.am      4 UNK        -0.4224 
     55 C         -79.2828   25.0459  -77.4647 C.2       3 UNK         0.4895 
     56 O         -79.2839   24.1560  -78.3151 O.2       3 UNK        -0.5091 
     57 CA        -78.4886   26.3323  -77.7603 C.3       3 UNK         0.0250 
     58 CB        -79.1977   27.1666  -78.8399 C.3       3 UNK        -0.1996 
     59 N         -78.2766   27.1592  -76.5719 N.am      3 UNK        -0.4254 
     60 C         -77.2376   27.0299  -75.7328 C.2       2 UNK         0.5004 
     61 O         -76.2985   26.2566  -75.9275 O.2       2 UNK        -0.5226 
     62 CA        -77.2511   27.8923  -74.4535 C.3       2 UNK         0.0269 
     63 CB        -76.3589   29.1294  -74.6304 C.3       2 UNK        -0.1926 
     64 N         -78.5886   28.3232  -74.0312 N.am      2 UNK        -0.4687 
     65 C         -79.5887   27.4947  -73.7007 C.2       1 UNK         0.5165 
     66 O         -79.4828   26.2661  -73.6923 O.2       1 UNK        -0.5079 
     67 H67       -83.2890   28.2304  -77.3295 H         1 UNK         0.0900 
     68 H68       -82.4732   26.6644  -77.3502 H         1 UNK         0.0900 
     69 H69       -83.7217   26.9969  -76.1458 H         1 UNK         0.0900 
     70 H70       -82.7026   27.1591  -74.1427 H         1 UNK         0.2959 
     71 H71       -80.8679   29.2179  -73.5585 H         1 UNK         0.1079 
     72 H72       -81.1694   26.8680  -71.6448 H         1 UNK         0.0837 
     73 H73       -82.5876   27.7942  -72.0165 H         1 UNK         0.0837 
     74 H74       -80.5981   27.3623  -69.3036 H         1 UNK         0.0685 
     75 H75       -80.0114   28.8890  -68.7006 H         1 UNK         0.0685 
     76 H76       -78.9894   25.8495  -70.2467 H         1 UNK         0.1434 
     77 H77       -75.0341   27.1830  -71.1754 H         1 UNK         0.1329 
     78 H78       -78.0491   30.0228  -70.0315 H         1 UNK         0.1335 
     79 H79       -76.0001   30.7554  -71.2670 H         1 UNK         0.0680 
     80 H80       -75.1972   30.2794  -69.7848 H         1 UNK         0.0680 
     81 H81       -73.6999   31.9312  -71.1473 H         1 UNK         0.1032 
     82 H82       -72.2057   31.2456  -71.7244 H         1 UNK         0.1032 
     83 H83       -74.6223   31.9250  -73.4664 H         1 UNK         0.0461 
     84 H84       -71.7353   34.6325  -74.2739 H         1 UNK         0.3453 
     85 H85       -71.6069   32.9701  -74.7966 H         1 UNK         0.3453 
     86 H86       -72.3721   30.2669  -74.0940 H         1 UNK         0.2984 
     87 H87       -73.3757   29.9004  -77.4851 H         1 UNK         0.0554 
     88 H88       -71.3647   31.3420  -77.5537 H         1 UNK         0.0847 
     89 H89       -70.9261   29.6562  -77.7754 H         1 UNK         0.0847 
     90 H90       -70.6368   30.4486  -76.2286 H         1 UNK         0.0847 
     91 H91       -73.3419   27.9312  -76.5418 H         1 UNK         0.3141 
     92 H92       -71.3425   26.2091  -74.2801 H         1 UNK         0.0743 
     93 H93       -73.0962   26.8993  -72.6899 H         1 UNK         0.0784 
     94 H94       -73.4999   25.3351  -73.3729 H         1 UNK         0.0784 
     95 H95       -74.3344   26.7814  -73.9334 H         1 UNK         0.0784 
     96 H96       -73.5838   25.4899  -75.9548 H         1 UNK         0.3213 
     97 H97       -72.1800   25.2747  -78.8760 H         1 UNK         0.0855 
     98 H98       -71.3459   22.6993  -77.4429 H         1 UNK         0.0814 
     99 H99       -70.3375   23.6878  -78.4854 H         1 UNK         0.0814 
    100 H100      -71.7105   22.8316  -79.1631 H         1 UNK         0.0814 
    101 H101      -74.2604   24.6213  -78.6736 H         1 UNK         0.3105 
    102 H102      -76.1607   24.0347  -77.8340 H         1 UNK         0.0547 
    103 H103      -77.0658   21.7831  -78.4260 H         1 UNK         0.0837 
    104 H104      -75.5802   21.0292  -77.8435 H         1 UNK         0.0837 
    105 H105      -75.5354   22.1099  -79.2232 H         1 UNK         0.0837 
    106 H106      -77.0568   23.9113  -75.8582 H         1 UNK         0.3020 
    107 H107      -78.0582   21.2688  -73.8362 H         1 UNK         0.1245 
    108 H108      -76.1031   22.1934  -72.5137 H         1 UNK         0.0781 
    109 H109      -77.6896   22.5945  -71.9235 H         1 UNK         0.0781 
    110 H110      -75.5307   24.7693  -70.6144 H         1 UNK         0.0836 
    111 H111      -77.1897   24.2585  -70.4470 H         1 UNK         0.0836 
    112 H112      -78.7774   24.0683  -74.1810 H         1 UNK         0.3022 
    113 H113      -81.1910   23.3384  -76.7586 H         1 UNK         0.0747 
    114 H114      -82.4884   24.8472  -75.2834 H         1 UNK         0.0793 
    115 H115      -82.3626   23.2449  -74.5856 H         1 UNK         0.0793 
    116 H116      -81.3752   24.5459  -73.9479 H         1 UNK         0.0793 
    117 H117      -79.8365   25.6814  -75.6028 H         1 UNK         0.3047 
    118 H118      -77.5196   26.0311  -78.1631 H         1 UNK         0.0822 
    119 H119      -78.6381   28.0726  -79.0728 H         1 UNK         0.0807 
    120 H120      -80.2014   27.4618  -78.5345 H         1 UNK         0.0807 
    121 H121      -79.2959   26.6005  -79.7672 H         1 UNK         0.0807 
    122 H122      -79.0114   27.8242  -76.3478 H         1 UNK         0.2946 
    123 H123      -76.8364   27.2841  -73.6489 H         1 UNK         0.1144 
    124 H124      -76.7087   29.7725  -75.4388 H         1 UNK         0.0793 
    125 H125      -75.3359   28.8370  -74.8636 H         1 UNK         0.0793 
    126 H126      -76.3197   29.7252  -73.7190 H         1 UNK         0.0793 
    127 H127      -78.7658   29.3170  -74.0489 H         1 UNK         0.2896 
@<TRIPOS>BOND
     1    1    2 1    
     2    1   67 1    
     3    1   68 1    
     4    1   69 1    
     5    2    3 2    
     6    2    4 am   BACKBONE|DICT|INTERRES
     7    4    5 1    
     8    4   70 1    
     9    5    6 1    
    10    5   65 1    
    11    5   71 1    
    12    6    7 1    
    13    6   72 1    
    14    6   73 1    
    15    7    8 1    
    16    8    9 1    
    17    8   74 1    
    18    8   75 1    
    19    9   10 ar   
    20    9   14 ar   
    21   10   11 ar   
    22   10   76 1    
    23   11   12 ar   
    24   11   48 1    
    25   12   13 ar   
    26   12   77 1    
    27   13   14 ar   
    28   13   15 1    
    29   14   78 1    
    30   15   16 1    
    31   15   79 1    
    32   15   80 1    
    33   16   17 1    
    34   17   18 1    
    35   17   81 1    
    36   17   82 1    
    37   18   19 1    
    38   18   22 1    
    39   18   83 1    
    40   19   20 am   BACKBONE|DICT|INTERRES
    41   19   21 2    
    42   20   84 1    
    43   20   85 1    
    44   22   23 am   BACKBONE|DICT|INTERRES
    45   22   86 1    
    46   23   24 2    
    47   23   25 1    
    48   25   26 1    
    49   25   27 1    
    50   25   87 1    
    51   26   88 1    
    52   26   89 1    
    53   26   90 1    
    54   27   28 am   BACKBONE|DICT|INTERRES
    55   27   91 1    
    56   28   29 2    
    57   28   30 1    
    58   30   31 1    
    59   30   32 1    
    60   30   92 1    
    61   31   93 1    
    62   31   94 1    
    63   31   95 1    
    64   32   33 am   BACKBONE|DICT|INTERRES
    65   32   96 1    
    66   33   34 2    
    67   33   35 1    
    68   35   36 1    
    69   35   37 1    
    70   35   97 1    
    71   36   98 1    
    72   36   99 1    
    73   36  100 1    
    74   37   38 am   BACKBONE|DICT|INTERRES
    75   37  101 1    
    76   38   39 2    
    77   38   40 1    
    78   40   41 1    
    79   40   42 1    
    80   40  102 1    
    81   41  103 1    
    82   41  104 1    
    83   41  105 1    
    84   42   43 am   BACKBONE|DICT|INTERRES
    85   42  106 1    
    86   43   44 2    
    87   43   45 1    
    88   45   46 1    
    89   45   49 1    
    90   45  107 1    
    91   46   47 1    
    92   46  108 1    
    93   46  109 1    
    94   47   48 1    
    95   48  110 1    
    96   48  111 1    
    97   49   50 am   BACKBONE|DICT|INTERRES
    98   49  112 1    
    99   50   51 2    
   100   50   52 1    
   101   52   53 1    
   102   52   54 1    
   103   52  113 1    
   104   53  114 1    
   105   53  115 1    
   106   53  116 1    
   107   54   55 am   BACKBONE|DICT|INTERRES
   108   54  117 1    
   109   55   56 2    
   110   55   57 1    
   111   57   58 1    
   112   57   59 1    
   113   57  118 1    
   114   58  119 1    
   115   58  120 1    
   116   58  121 1    
   117   59   60 am   BACKBONE|DICT|INTERRES
   118   59  122 1    
   119   60   61 2    
   120   60   62 1    
   121   62   63 1    
   122   62   64 1    
   123   62  123 1    
   124   63  124 1    
   125   63  125 1    
   126   63  126 1    
   127   64   65 am   BACKBONE|DICT|INTERRES
   128   64  127 1    
   129   65   66 2    
@<TRIPOS>SUBSTRUCTURE
     1 UNK         1 GROUP             0       ****    0 ROOT    
