@<TRIPOS>MOLECULE
3R135
127   129    1
SMALL
USER_CHARGES


@<TRIPOS>ATOM
      1 CA        -80.5803   26.1671  -77.5312 C.3       0 UNK        -0.1998 
      2 C         -81.3132   27.5037  -77.6081 C.2       0 UNK         0.4909 
      3 O         -81.5885   27.9665  -78.7134 O.2       0 UNK        -0.5240 
      4 N         -81.6421   28.1747  -76.4936 N.am      1 UNK        -0.4739 
      5 CA        -81.4588   27.7824  -75.0878 C.3       1 UNK         0.0864 
      6 C6        -81.8914   28.9268  -74.1377 C.3       11 UNK        -0.0881 
      7 S7        -80.8211   30.3980  -74.2918 S.3       11 UNK        -0.2682 
      8 C8        -80.2287   30.6241  -72.5832 C.3       11 UNK         0.0289 
      9 C9        -78.9899   29.7910  -72.2806 C.ar      11 UNK        -0.0687 
     10 C10       -79.1092   28.4644  -71.8486 C.ar      11 UNK        -0.0823 
     11 C11       -77.9710   27.7143  -71.5336 C.ar      11 UNK        -0.0830 
     12 C12       -76.7129   28.3071  -71.6467 C.ar      11 UNK        -0.1021 
     13 C13       -76.5759   29.6327  -72.0649 C.ar      11 UNK        -0.0753 
     14 C14       -77.7190   30.3673  -72.3918 C.ar      11 UNK        -0.0933 
     15 C15       -75.1892   30.2546  -72.1658 C.3       11 UNK         0.0166 
     16 S16       -74.2465   30.0396  -70.6185 S.3       11 UNK        -0.2615 
     17 C17       -72.5370   30.4456  -71.1200 C.3       11 UNK        -0.0865 
     18 CA        -71.7701   29.3223  -71.8820 C.3       10 UNK         0.0862 
     19 C         -71.7705   27.9452  -71.1601 C.2       10 UNK         0.5551 
     20 N         -72.2898   26.8747  -71.7505 N.am      10 UNK        -0.7319 
     21 O         -71.2566   27.8401  -70.0491 O.2       10 UNK        -0.5018 
     22 N         -72.1307   29.2675  -73.3061 N.am      10 UNK        -0.4509 
     23 C         -71.6950   30.1420  -74.2207 C.2       10 UNK         0.4899 
     24 O         -70.9248   31.0708  -73.9685 O.2       10 UNK        -0.4839 
     25 CA        -72.2273   29.9547  -75.6507 C.3       9 UNK         0.0222 
     26 CB        -71.5545   30.8869  -76.6806 C.3       9 UNK        -0.1966 
     27 N         -72.1748   28.5613  -76.0975 N.am      9 UNK        -0.4218 
     28 C         -71.0970   27.7780  -76.2580 C.2       9 UNK         0.5020 
     29 O         -69.9422   28.1309  -76.0155 O.2       9 UNK        -0.5274 
     30 CA        -71.3458   26.3485  -76.7815 C.3       8 UNK         0.0270 
     31 CB        -71.1570   25.3261  -75.6483 C.3       8 UNK        -0.1976 
     32 N         -72.6788   26.1661  -77.3637 N.am      8 UNK        -0.4313 
     33 C         -73.1107   26.7044  -78.5132 C.2       8 UNK         0.5041 
     34 O         -72.3879   27.3130  -79.3022 O.2       8 UNK        -0.5577 
     35 CA        -74.6214   26.6029  -78.7871 C.3       7 UNK         0.0284 
     36 CB        -74.9776   25.2569  -79.4392 C.3       7 UNK        -0.1958 
     37 N         -75.4066   26.7983  -77.5614 N.am      7 UNK        -0.4454 
     38 C         -75.5472   27.9775  -76.9369 C.2       7 UNK         0.5089 
     39 O         -75.0973   29.0350  -77.3745 O.2       7 UNK        -0.5125 
     40 CA        -76.2689   27.9857  -75.5803 C.3       6 UNK         0.0408 
     41 CB        -77.7461   28.3522  -75.7564 C.3       6 UNK        -0.1791 
     42 N         -76.1614   26.7082  -74.8739 N.am      6 UNK        -0.4762 
     43 C         -75.1016   26.3395  -74.1393 C.2       6 UNK         0.5007 
     44 O         -74.1023   27.0457  -73.9714 O.2       6 UNK        -0.5032 
     45 CA        -75.1429   24.9174  -73.5333 C.3       5 UNK         0.0783 
     46 C46       -75.8897   24.8758  -72.1733 C.3       11 UNK        -0.0857 
     47 S47       -77.7147   25.0476  -72.3010 S.3       11 UNK        -0.2512 
     48 C48       -78.0963   26.2857  -71.0204 C.3       11 UNK         0.0225 
     49 N         -75.6869   23.9147  -74.4525 N.am      5 UNK        -0.4615 
     50 C         -75.2826   23.6649  -75.7027 C.2       4 UNK         0.5053 
     51 O         -74.2970   24.1972  -76.2091 O.2       4 UNK        -0.5105 
     52 CA        -76.1338   22.7019  -76.5575 C.3       4 UNK         0.0263 
     53 CB        -75.3204   21.4503  -76.9247 C.3       4 UNK        -0.1981 
     54 N         -77.4102   22.2859  -75.9597 N.am      4 UNK        -0.4224 
     55 C         -78.4216   23.0945  -75.6121 C.2       3 UNK         0.4895 
     56 O         -78.3912   24.3206  -75.7547 O.2       3 UNK        -0.5091 
     57 CA        -79.6343   22.4287  -74.9422 C.3       3 UNK         0.0250 
     58 CB        -79.2137   21.3821  -73.8837 C.3       3 UNK        -0.1996 
     59 N         -80.4450   23.4713  -74.3203 N.am      3 UNK        -0.4254 
     60 C         -81.6970   23.3439  -73.8655 C.2       2 UNK         0.5004 
     61 O         -82.3657   22.3150  -73.9696 O.2       2 UNK        -0.5226 
     62 CA        -82.3039   24.5657  -73.1565 C.3       2 UNK         0.0269 
     63 CB        -82.0637   24.4701  -71.6405 C.3       2 UNK        -0.1926 
     64 N         -81.7502   25.8309  -73.6458 N.am      2 UNK        -0.4687 
     65 C         -82.2064   26.4819  -74.7235 C.2       1 UNK         0.5165 
     66 O         -83.1725   26.1067  -75.3921 O.2       1 UNK        -0.5079 
     67 H67       -81.2915   25.3442  -77.5947 H         1 UNK         0.0900 
     68 H68       -79.8792   26.0718  -78.3599 H         1 UNK         0.0900 
     69 H69       -80.0115   26.0564  -76.6132 H         1 UNK         0.0900 
     70 H70       -82.1152   29.0588  -76.6109 H         1 UNK         0.2959 
     71 H71       -80.3968   27.5950  -74.9309 H         1 UNK         0.1079 
     72 H72       -82.9196   29.2283  -74.3479 H         1 UNK         0.0837 
     73 H73       -81.8935   28.5969  -73.0981 H         1 UNK         0.0837 
     74 H74       -80.0022   31.6817  -72.4393 H         1 UNK         0.0685 
     75 H75       -81.0246   30.3957  -71.8728 H         1 UNK         0.0685 
     76 H76       -80.0886   28.0234  -71.7352 H         1 UNK         0.1434 
     77 H77       -75.8266   27.7481  -71.3889 H         1 UNK         0.1329 
     78 H78       -77.6225   31.3933  -72.7195 H         1 UNK         0.1335 
     79 H79       -74.6706   29.7744  -72.9931 H         1 UNK         0.0680 
     80 H80       -75.2486   31.3178  -72.4031 H         1 UNK         0.0680 
     81 H81       -72.5449   31.3717  -71.6963 H         1 UNK         0.1032 
     82 H82       -71.9894   30.6866  -70.2073 H         1 UNK         0.1032 
     83 H83       -70.7155   29.6052  -71.8577 H         1 UNK         0.0461 
     84 H84       -72.2499   25.9945  -71.2632 H         1 UNK         0.3453 
     85 H85       -72.7802   26.9412  -72.6337 H         1 UNK         0.3453 
     86 H86       -72.7615   28.5246  -73.5862 H         1 UNK         0.2984 
     87 H87       -73.2846   30.2206  -75.6131 H         1 UNK         0.0554 
     88 H88       -71.6976   31.9343  -76.4122 H         1 UNK         0.0847 
     89 H89       -71.9786   30.7476  -77.6751 H         1 UNK         0.0847 
     90 H90       -70.4801   30.7121  -76.7459 H         1 UNK         0.0847 
     91 H91       -73.0699   28.1514  -76.3218 H         1 UNK         0.3141 
     92 H92       -70.6048   26.1484  -77.5580 H         1 UNK         0.0743 
     93 H93       -71.8768   25.4799  -74.8434 H         1 UNK         0.0784 
     94 H94       -71.2757   24.3049  -76.0114 H         1 UNK         0.0784 
     95 H95       -70.1595   25.4022  -75.2134 H         1 UNK         0.0784 
     96 H96       -73.3271   25.5842  -76.8333 H         1 UNK         0.3213 
     97 H97       -74.8873   27.3970  -79.4886 H         1 UNK         0.0855 
     98 H98       -74.6663   24.4093  -78.8292 H         1 UNK         0.0814 
     99 H99       -74.4802   25.1551  -80.4046 H         1 UNK         0.0814 
    100 H100      -76.0495   25.1706  -79.6177 H         1 UNK         0.0814 
    101 H101      -75.7782   25.9732  -77.1146 H         1 UNK         0.3105 
    102 H102      -75.8081   28.7635  -74.9681 H         1 UNK         0.0547 
    103 H103      -77.8554   29.3178  -76.2520 H         1 UNK         0.0837 
    104 H104      -78.2738   27.6136  -76.3575 H         1 UNK         0.0837 
    105 H105      -78.2411   28.4313  -74.7895 H         1 UNK         0.0837 
    106 H106      -76.9379   26.0624  -74.9538 H         1 UNK         0.3020 
    107 H107      -74.1031   24.6370  -73.3518 H         1 UNK         0.1245 
    108 H108      -75.4756   25.6107  -71.4841 H         1 UNK         0.0781 
    109 H109      -75.6972   23.9136  -71.6963 H         1 UNK         0.0781 
    110 H110      -77.4476   26.1392  -70.1555 H         1 UNK         0.0836 
    111 H111      -79.1110   26.1073  -70.6619 H         1 UNK         0.0836 
    112 H112      -76.5264   23.4547  -74.1339 H         1 UNK         0.3022 
    113 H113      -76.3730   23.2338  -77.4801 H         1 UNK         0.0747 
    114 H114      -75.8674   20.8084  -77.6154 H         1 UNK         0.0793 
    115 H115      -74.3831   21.7205  -77.4139 H         1 UNK         0.0793 
    116 H116      -75.0685   20.8602  -76.0426 H         1 UNK         0.0793 
    117 H117      -77.5161   21.2958  -75.7908 H         1 UNK         0.3047 
    118 H118      -80.2233   21.9456  -75.7242 H         1 UNK         0.0822 
    119 H119      -78.6733   20.5472  -74.3301 H         1 UNK         0.0807 
    120 H120      -80.0781   20.9510  -73.3789 H         1 UNK         0.0807 
    121 H121      -78.5728   21.8217  -73.1180 H         1 UNK         0.0807 
    122 H122      -79.9771   24.3657  -74.2530 H         1 UNK         0.2946 
    123 H123      -83.3824   24.5483  -73.3330 H         1 UNK         0.1144 
    124 H124      -82.5242   25.3046  -71.1114 H         1 UNK         0.0793 
    125 H125      -81.0002   24.4622  -71.3979 H         1 UNK         0.0793 
    126 H126      -82.4956   23.5538  -71.2354 H         1 UNK         0.0793 
    127 H127      -80.9613   26.2020  -73.1371 H         1 UNK         0.2896 
@<TRIPOS>BOND
     1    1    2 1    
     2    1   67 1    
     3    1   68 1    
     4    1   69 1    
     5    2    3 2    
     6    2    4 am   BACKBONE|DICT|INTERRES
     7    4    5 1    
     8    4   70 1    
     9    5    6 1    
    10    5   65 1    
    11    5   71 1    
    12    6    7 1    
    13    6   72 1    
    14    6   73 1    
    15    7    8 1    
    16    8    9 1    
    17    8   74 1    
    18    8   75 1    
    19    9   10 ar   
    20    9   14 ar   
    21   10   11 ar   
    22   10   76 1    
    23   11   12 ar   
    24   11   48 1    
    25   12   13 ar   
    26   12   77 1    
    27   13   14 ar   
    28   13   15 1    
    29   14   78 1    
    30   15   16 1    
    31   15   79 1    
    32   15   80 1    
    33   16   17 1    
    34   17   18 1    
    35   17   81 1    
    36   17   82 1    
    37   18   19 1    
    38   18   22 1    
    39   18   83 1    
    40   19   20 am   BACKBONE|DICT|INTERRES
    41   19   21 2    
    42   20   84 1    
    43   20   85 1    
    44   22   23 am   BACKBONE|DICT|INTERRES
    45   22   86 1    
    46   23   24 2    
    47   23   25 1    
    48   25   26 1    
    49   25   27 1    
    50   25   87 1    
    51   26   88 1    
    52   26   89 1    
    53   26   90 1    
    54   27   28 am   BACKBONE|DICT|INTERRES
    55   27   91 1    
    56   28   29 2    
    57   28   30 1    
    58   30   31 1    
    59   30   32 1    
    60   30   92 1    
    61   31   93 1    
    62   31   94 1    
    63   31   95 1    
    64   32   33 am   BACKBONE|DICT|INTERRES
    65   32   96 1    
    66   33   34 2    
    67   33   35 1    
    68   35   36 1    
    69   35   37 1    
    70   35   97 1    
    71   36   98 1    
    72   36   99 1    
    73   36  100 1    
    74   37   38 am   BACKBONE|DICT|INTERRES
    75   37  101 1    
    76   38   39 2    
    77   38   40 1    
    78   40   41 1    
    79   40   42 1    
    80   40  102 1    
    81   41  103 1    
    82   41  104 1    
    83   41  105 1    
    84   42   43 am   BACKBONE|DICT|INTERRES
    85   42  106 1    
    86   43   44 2    
    87   43   45 1    
    88   45   46 1    
    89   45   49 1    
    90   45  107 1    
    91   46   47 1    
    92   46  108 1    
    93   46  109 1    
    94   47   48 1    
    95   48  110 1    
    96   48  111 1    
    97   49   50 am   BACKBONE|DICT|INTERRES
    98   49  112 1    
    99   50   51 2    
   100   50   52 1    
   101   52   53 1    
   102   52   54 1    
   103   52  113 1    
   104   53  114 1    
   105   53  115 1    
   106   53  116 1    
   107   54   55 am   BACKBONE|DICT|INTERRES
   108   54  117 1    
   109   55   56 2    
   110   55   57 1    
   111   57   58 1    
   112   57   59 1    
   113   57  118 1    
   114   58  119 1    
   115   58  120 1    
   116   58  121 1    
   117   59   60 am   BACKBONE|DICT|INTERRES
   118   59  122 1    
   119   60   61 2    
   120   60   62 1    
   121   62   63 1    
   122   62   64 1    
   123   62  123 1    
   124   63  124 1    
   125   63  125 1    
   126   63  126 1    
   127   64   65 am   BACKBONE|DICT|INTERRES
   128   64  127 1    
   129   65   66 2    
@<TRIPOS>SUBSTRUCTURE
     1 UNK         1 GROUP             0       ****    0 ROOT    
