@<TRIPOS>MOLECULE
3R135
127   129    1
SMALL
USER_CHARGES


@<TRIPOS>ATOM
      1 CA        -83.3720   27.2382  -70.5571 C.3       0 UNK        -0.1998 
      2 C         -83.5122   27.3783  -72.0654 C.2       0 UNK         0.4909 
      3 O         -84.6039   27.1842  -72.6008 O.2       0 UNK        -0.5240 
      4 N         -82.4134   27.7155  -72.7534 N.am      1 UNK        -0.4739 
      5 CA        -82.3552   27.9006  -74.2112 C.3       1 UNK         0.0864 
      6 C6        -81.0409   28.5863  -74.6656 C.3       11 UNK        -0.0881 
      7 S7        -80.7318   30.1839  -73.8433 S.3       11 UNK        -0.2682 
      8 C8        -78.9267   30.3528  -74.0857 C.3       11 UNK         0.0289 
      9 C9        -78.0314   29.5491  -73.1364 C.ar      11 UNK        -0.0687 
     10 C10       -78.5218   28.5765  -72.2532 C.ar      11 UNK        -0.0823 
     11 C11       -77.6595   27.8728  -71.4081 C.ar      11 UNK        -0.0830 
     12 C12       -76.2932   28.1594  -71.4294 C.ar      11 UNK        -0.1021 
     13 C13       -75.7837   29.1152  -72.3101 C.ar      11 UNK        -0.0753 
     14 C14       -76.6554   29.8010  -73.1609 C.ar      11 UNK        -0.0933 
     15 C15       -74.2882   29.3768  -72.3640 C.3       11 UNK         0.0166 
     16 S16       -73.8672   31.0462  -71.7708 S.3       11 UNK        -0.2615 
     17 C17       -72.0493   30.9255  -71.6380 C.3       11 UNK        -0.0865 
     18 CA        -71.2972   31.4200  -72.9019 C.3       10 UNK         0.0862 
     19 C         -69.7594   31.4058  -72.6526 C.2       10 UNK         0.5551 
     20 N         -68.9929   30.5038  -73.2567 N.am      10 UNK        -0.7319 
     21 O         -69.2563   32.2308  -71.8941 O.2       10 UNK        -0.5018 
     22 N         -71.7164   30.6770  -74.0975 N.am      10 UNK        -0.4509 
     23 C         -71.4534   31.0160  -75.3641 C.2       10 UNK         0.4899 
     24 O         -70.9364   32.0856  -75.6902 O.2       10 UNK        -0.4839 
     25 CA        -71.8301   29.9829  -76.4486 C.3       9 UNK         0.0222 
     26 CB        -70.8362   29.9950  -77.6285 C.3       9 UNK        -0.1966 
     27 N         -72.0149   28.6073  -75.9561 N.am      9 UNK        -0.4218 
     28 C         -71.1185   27.8397  -75.3091 C.2       9 UNK         0.5020 
     29 O         -70.0024   28.2352  -74.9678 O.2       9 UNK        -0.5274 
     30 CA        -71.5355   26.4005  -74.9448 C.3       8 UNK         0.0270 
     31 CB        -71.8969   26.3079  -73.4538 C.3       8 UNK        -0.1976 
     32 N         -72.6525   25.8934  -75.7469 N.am      8 UNK        -0.4313 
     33 C         -72.5672   25.6037  -77.0546 C.2       8 UNK         0.5041 
     34 O         -71.5081   25.6237  -77.6834 O.2       8 UNK        -0.5577 
     35 CA        -73.8660   25.2572  -77.8092 C.3       7 UNK         0.0284 
     36 CB        -73.9399   23.7420  -78.0627 C.3       7 UNK        -0.1958 
     37 N         -75.1076   25.7010  -77.1638 N.am      7 UNK        -0.4454 
     38 C         -75.4122   26.9578  -76.8059 C.2       7 UNK         0.5089 
     39 O         -74.6728   27.9240  -76.9973 O.2       7 UNK        -0.5125 
     40 CA        -76.7353   27.1645  -76.0475 C.3       6 UNK         0.0408 
     41 CB        -77.8839   27.4238  -77.0332 C.3       6 UNK        -0.1791 
     42 N         -77.0961   26.0526  -75.1618 N.am      6 UNK        -0.4762 
     43 C         -76.3430   25.5726  -74.1583 C.2       6 UNK         0.5007 
     44 O         -75.2158   25.9876  -73.8852 O.2       6 UNK        -0.5032 
     45 CA        -76.9210   24.3683  -73.3930 C.3       5 UNK         0.0783 
     46 C46       -78.0789   24.7593  -72.4351 C.3       11 UNK        -0.0857 
     47 S47       -77.4760   25.1663  -70.7628 S.3       11 UNK        -0.2512 
     48 C48       -78.2049   26.8102  -70.4638 C.3       11 UNK         0.0225 
     49 N         -77.3350   23.3408  -74.3487 N.am      5 UNK        -0.4615 
     50 C         -76.5081   22.4476  -74.9082 C.2       4 UNK         0.5053 
     51 O         -75.3184   22.3384  -74.6124 O.2       4 UNK        -0.5105 
     52 CA        -77.0985   21.5142  -75.9816 C.3       4 UNK         0.0263 
     53 CB        -77.4814   20.1607  -75.3617 C.3       4 UNK        -0.1981 
     54 N         -78.2636   22.0735  -76.6727 N.am      4 UNK        -0.4224 
     55 C         -78.2253   23.1336  -77.4919 C.2       3 UNK         0.4895 
     56 O         -77.1984   23.7501  -77.7700 O.2       3 UNK        -0.5091 
     57 CA        -79.5722   23.6245  -78.0471 C.3       3 UNK         0.0250 
     58 CB        -79.9714   22.8152  -79.2912 C.3       3 UNK        -0.1996 
     59 N         -80.6671   23.6016  -77.0686 N.am      3 UNK        -0.4254 
     60 C         -80.6539   24.2428  -75.8920 C.2       2 UNK         0.5004 
     61 O         -79.6744   24.8493  -75.4483 O.2       2 UNK        -0.5226 
     62 CA        -81.9338   24.1748  -75.0454 C.3       2 UNK         0.0269 
     63 CB        -81.8225   23.0587  -73.9947 C.3       2 UNK        -0.1926 
     64 N         -82.1410   25.4543  -74.3681 N.am      2 UNK        -0.4687 
     65 C         -82.5189   26.5799  -74.9913 C.2       1 UNK         0.5165 
     66 O         -82.9402   26.6088  -76.1489 O.2       1 UNK        -0.5079 
     67 H67       -84.0425   27.9333  -70.0524 H         1 UNK         0.0900 
     68 H68       -83.6345   26.2267  -70.2485 H         1 UNK         0.0900 
     69 H69       -82.3560   27.4427  -70.2199 H         1 UNK         0.0900 
     70 H70       -81.5583   27.9051  -72.2544 H         1 UNK         0.2959 
     71 H71       -83.1912   28.5436  -74.4963 H         1 UNK         0.1079 
     72 H72       -80.1893   27.9245  -74.4940 H         1 UNK         0.0837 
     73 H73       -81.0633   28.7726  -75.7415 H         1 UNK         0.0837 
     74 H74       -78.6816   31.4102  -73.9753 H         1 UNK         0.0685 
     75 H75       -78.6808   30.0882  -75.1152 H         1 UNK         0.0685 
     76 H76       -79.5760   28.3581  -72.2118 H         1 UNK         0.1434 
     77 H77       -75.6245   27.6163  -70.7757 H         1 UNK         0.1329 
     78 H78       -76.2565   30.5393  -73.8433 H         1 UNK         0.1335 
     79 H79       -73.7546   28.6371  -71.7653 H         1 UNK         0.0680 
     80 H80       -73.9503   29.2499  -73.3925 H         1 UNK         0.0680 
     81 H81       -71.7650   29.8994  -71.3966 H         1 UNK         0.1032 
     82 H82       -71.7539   31.5223  -70.7726 H         1 UNK         0.1032 
     83 H83       -71.5714   32.4645  -73.0627 H         1 UNK         0.0461 
     84 H84       -67.9999   30.5084  -73.0870 H         1 UNK         0.3453 
     85 H85       -69.3949   29.8071  -73.8758 H         1 UNK         0.3453 
     86 H86       -72.1306   29.7742  -73.9330 H         1 UNK         0.2984 
     87 H87       -72.8026   30.2936  -76.8327 H         1 UNK         0.0554 
     88 H88       -70.7963   30.9769  -78.1016 H         1 UNK         0.0847 
     89 H89       -71.1260   29.2792  -78.3979 H         1 UNK         0.0847 
     90 H90       -69.8242   29.7481  -77.3054 H         1 UNK         0.0847 
     91 H91       -72.9150   28.1956  -76.1926 H         1 UNK         0.3141 
     92 H92       -70.6707   25.7584  -75.1245 H         1 UNK         0.0743 
     93 H93       -71.0719   26.6502  -72.8274 H         1 UNK         0.0784 
     94 H94       -72.7668   26.9176  -73.2114 H         1 UNK         0.0784 
     95 H95       -72.1197   25.2811  -73.1632 H         1 UNK         0.0784 
     96 H96       -73.5585   25.8474  -75.2915 H         1 UNK         0.3213 
     97 H97       -73.8108   25.7623  -78.7755 H         1 UNK         0.0855 
     98 H98       -74.0977   23.1867  -77.1373 H         1 UNK         0.0814 
     99 H99       -73.0181   23.3715  -78.5135 H         1 UNK         0.0814 
    100 H100      -74.7500   23.4931  -78.7478 H         1 UNK         0.0814 
    101 H101      -75.8213   24.9894  -77.0343 H         1 UNK         0.3105 
    102 H102      -76.6171   28.0491  -75.4204 H         1 UNK         0.0547 
    103 H103      -78.8184   27.6278  -76.5123 H         1 UNK         0.0837 
    104 H104      -78.0478   26.5699  -77.6906 H         1 UNK         0.0837 
    105 H105      -77.6688   28.2867  -77.6648 H         1 UNK         0.0837 
    106 H106      -78.0085   25.6277  -75.3192 H         1 UNK         0.3020 
    107 H107      -76.1071   23.9515  -72.7944 H         1 UNK         0.1245 
    108 H108      -78.7612   23.9172  -72.3100 H         1 UNK         0.0781 
    109 H109      -78.6909   25.5683  -72.8390 H         1 UNK         0.0781 
    110 H110      -77.9886   27.1083  -69.4370 H         1 UNK         0.0836 
    111 H111      -79.2909   26.7347  -70.5372 H         1 UNK         0.0836 
    112 H112      -78.2800   23.4199  -74.7016 H         1 UNK         0.3022 
    113 H113      -76.3185   21.3419  -76.7266 H         1 UNK         0.0747 
    114 H114      -77.8229   19.4578  -76.1219 H         1 UNK         0.0793 
    115 H115      -76.6253   19.7041  -74.8629 H         1 UNK         0.0793 
    116 H116      -78.2733   20.2656  -74.6189 H         1 UNK         0.0793 
    117 H117      -79.1558   21.6347  -76.4970 H         1 UNK         0.3047 
    118 H118      -79.4354   24.6640  -78.3514 H         1 UNK         0.0822 
    119 H119      -80.8641   23.2264  -79.7630 H         1 UNK         0.0807 
    120 H120      -80.1697   21.7701  -79.0498 H         1 UNK         0.0807 
    121 H121      -79.1768   22.8318  -80.0388 H         1 UNK         0.0807 
    122 H122      -81.5072   23.1150  -77.3478 H         1 UNK         0.2946 
    123 H123      -82.7898   23.9744  -75.6940 H         1 UNK         0.1144 
    124 H124      -80.9756   23.2142  -73.3253 H         1 UNK         0.0793 
    125 H125      -81.6890   22.0857  -74.4693 H         1 UNK         0.0793 
    126 H126      -82.7241   22.9987  -73.3847 H         1 UNK         0.0793 
    127 H127      -81.7903   25.5317  -73.4254 H         1 UNK         0.2896 
@<TRIPOS>BOND
     1    1    2 1    
     2    1   67 1    
     3    1   68 1    
     4    1   69 1    
     5    2    3 2    
     6    2    4 am   BACKBONE|DICT|INTERRES
     7    4    5 1    
     8    4   70 1    
     9    5    6 1    
    10    5   65 1    
    11    5   71 1    
    12    6    7 1    
    13    6   72 1    
    14    6   73 1    
    15    7    8 1    
    16    8    9 1    
    17    8   74 1    
    18    8   75 1    
    19    9   10 ar   
    20    9   14 ar   
    21   10   11 ar   
    22   10   76 1    
    23   11   12 ar   
    24   11   48 1    
    25   12   13 ar   
    26   12   77 1    
    27   13   14 ar   
    28   13   15 1    
    29   14   78 1    
    30   15   16 1    
    31   15   79 1    
    32   15   80 1    
    33   16   17 1    
    34   17   18 1    
    35   17   81 1    
    36   17   82 1    
    37   18   19 1    
    38   18   22 1    
    39   18   83 1    
    40   19   20 am   BACKBONE|DICT|INTERRES
    41   19   21 2    
    42   20   84 1    
    43   20   85 1    
    44   22   23 am   BACKBONE|DICT|INTERRES
    45   22   86 1    
    46   23   24 2    
    47   23   25 1    
    48   25   26 1    
    49   25   27 1    
    50   25   87 1    
    51   26   88 1    
    52   26   89 1    
    53   26   90 1    
    54   27   28 am   BACKBONE|DICT|INTERRES
    55   27   91 1    
    56   28   29 2    
    57   28   30 1    
    58   30   31 1    
    59   30   32 1    
    60   30   92 1    
    61   31   93 1    
    62   31   94 1    
    63   31   95 1    
    64   32   33 am   BACKBONE|DICT|INTERRES
    65   32   96 1    
    66   33   34 2    
    67   33   35 1    
    68   35   36 1    
    69   35   37 1    
    70   35   97 1    
    71   36   98 1    
    72   36   99 1    
    73   36  100 1    
    74   37   38 am   BACKBONE|DICT|INTERRES
    75   37  101 1    
    76   38   39 2    
    77   38   40 1    
    78   40   41 1    
    79   40   42 1    
    80   40  102 1    
    81   41  103 1    
    82   41  104 1    
    83   41  105 1    
    84   42   43 am   BACKBONE|DICT|INTERRES
    85   42  106 1    
    86   43   44 2    
    87   43   45 1    
    88   45   46 1    
    89   45   49 1    
    90   45  107 1    
    91   46   47 1    
    92   46  108 1    
    93   46  109 1    
    94   47   48 1    
    95   48  110 1    
    96   48  111 1    
    97   49   50 am   BACKBONE|DICT|INTERRES
    98   49  112 1    
    99   50   51 2    
   100   50   52 1    
   101   52   53 1    
   102   52   54 1    
   103   52  113 1    
   104   53  114 1    
   105   53  115 1    
   106   53  116 1    
   107   54   55 am   BACKBONE|DICT|INTERRES
   108   54  117 1    
   109   55   56 2    
   110   55   57 1    
   111   57   58 1    
   112   57   59 1    
   113   57  118 1    
   114   58  119 1    
   115   58  120 1    
   116   58  121 1    
   117   59   60 am   BACKBONE|DICT|INTERRES
   118   59  122 1    
   119   60   61 2    
   120   60   62 1    
   121   62   63 1    
   122   62   64 1    
   123   62  123 1    
   124   63  124 1    
   125   63  125 1    
   126   63  126 1    
   127   64   65 am   BACKBONE|DICT|INTERRES
   128   64  127 1    
   129   65   66 2    
@<TRIPOS>SUBSTRUCTURE
     1 UNK         1 GROUP             0       ****    0 ROOT    
