@<TRIPOS>MOLECULE
3R135
127   129    1
SMALL
USER_CHARGES


@<TRIPOS>ATOM
      1 CA        -84.8206   30.4276  -75.3524 C.3       0 UNK        -0.1998 
      2 C         -83.7906   29.4390  -74.8249 C.2       0 UNK         0.4909 
      3 O         -84.1668   28.4903  -74.1363 O.2       0 UNK        -0.5240 
      4 N         -82.5096   29.6693  -75.1535 N.am      1 UNK        -0.4739 
      5 CA        -81.3165   28.8833  -74.7972 C.3       1 UNK         0.0864 
      6 C6        -80.6740   29.2911  -73.4374 C.3       11 UNK        -0.0881 
      7 S7        -81.6756   28.9626  -71.9468 S.3       11 UNK        -0.2682 
      8 C8        -80.7116   29.8403  -70.6705 C.3       11 UNK         0.0289 
      9 C9        -79.3082   29.2735  -70.4788 C.ar      11 UNK        -0.0687 
     10 C10       -79.1071   27.8958  -70.3466 C.ar      11 UNK        -0.0823 
     11 C11       -77.8226   27.3742  -70.1745 C.ar      11 UNK        -0.0830 
     12 C12       -76.7334   28.2488  -70.0917 C.ar      11 UNK        -0.1021 
     13 C13       -76.9161   29.6266  -70.2350 C.ar      11 UNK        -0.0753 
     14 C14       -78.2064   30.1332  -70.4217 C.ar      11 UNK        -0.0933 
     15 C15       -75.7206   30.5683  -70.1892 C.3       11 UNK         0.0166 
     16 S16       -75.3852   31.3232  -71.8128 S.3       11 UNK        -0.2615 
     17 C17       -74.7301   29.9171  -72.7767 C.3       11 UNK        -0.0865 
     18 CA        -73.2414   30.1215  -73.1688 C.3       10 UNK         0.0862 
     19 C         -72.2784   29.5491  -72.0953 C.2       10 UNK         0.5551 
     20 N         -71.8397   30.3717  -71.1526 N.am      10 UNK        -0.7319 
     21 O         -71.9633   28.3609  -72.0848 O.2       10 UNK        -0.5018 
     22 N         -72.9656   29.5692  -74.5008 N.am      10 UNK        -0.4509 
     23 C         -71.9744   29.9769  -75.3026 C.2       10 UNK         0.4899 
     24 O         -71.1904   30.8842  -75.0168 O.2       10 UNK        -0.4839 
     25 CA        -71.8683   29.2631  -76.6631 C.3       9 UNK         0.0222 
     26 CB        -70.6757   29.7433  -77.5182 C.3       9 UNK        -0.1966 
     27 N         -71.8753   27.8036  -76.5321 N.am      9 UNK        -0.4218 
     28 C         -70.9648   27.0263  -75.9255 C.2       9 UNK         0.5020 
     29 O         -69.9293   27.4527  -75.4120 O.2       9 UNK        -0.5274 
     30 CA        -71.2437   25.5095  -75.8703 C.3       8 UNK         0.0270 
     31 CB        -71.5182   25.0733  -74.4215 C.3       8 UNK        -0.1976 
     32 N         -72.3555   25.0722  -76.7224 N.am      8 UNK        -0.4313 
     33 C         -72.3183   25.0045  -78.0608 C.2       8 UNK         0.5041 
     34 O         -71.3091   25.2321  -78.7288 O.2       8 UNK        -0.5577 
     35 CA        -73.6385   24.6699  -78.7791 C.3       7 UNK         0.0284 
     36 CB        -73.8507   23.1496  -78.8528 C.3       7 UNK        -0.1958 
     37 N         -74.8076   25.3077  -78.1625 N.am      7 UNK        -0.4454 
     38 C         -75.0045   26.6337  -78.0946 C.2       7 UNK         0.5089 
     39 O         -74.2388   27.4649  -78.5814 O.2       7 UNK        -0.5125 
     40 CA        -76.2226   27.1208  -77.2918 C.3       6 UNK         0.0408 
     41 CB        -77.5183   26.9819  -78.1056 C.3       6 UNK        -0.1791 
     42 N         -76.3554   26.4132  -76.0185 N.am      6 UNK        -0.4762 
     43 C         -75.4706   26.4767  -75.0146 C.2       6 UNK         0.5007 
     44 O         -74.4979   27.2308  -75.0157 O.2       6 UNK        -0.5032 
     45 CA        -75.6664   25.5064  -73.8355 C.3       5 UNK         0.0783 
     46 C46       -76.5420   26.1190  -72.7231 C.3       11 UNK        -0.0857 
     47 S47       -76.2821   25.2326  -71.1482 S.3       11 UNK        -0.2512 
     48 C48       -77.6309   25.8634  -70.0921 C.3       11 UNK         0.0225 
     49 N         -76.1811   24.2097  -74.2777 N.am      5 UNK        -0.4615 
     50 C         -75.4670   23.3025  -74.9524 C.2       4 UNK         0.5053 
     51 O         -74.2891   23.4598  -75.2698 O.2       4 UNK        -0.5105 
     52 CA        -76.2051   22.0209  -75.3713 C.3       4 UNK         0.0263 
     53 CB        -76.2478   21.0166  -74.2088 C.3       4 UNK        -0.1981 
     54 N         -77.5664   22.2852  -75.8461 N.am      4 UNK        -0.4224 
     55 C         -77.8496   22.9618  -76.9679 C.2       3 UNK         0.4895 
     56 O         -76.9942   23.4101  -77.7317 O.2       3 UNK        -0.5091 
     57 CA        -79.3362   23.2167  -77.2703 C.3       3 UNK         0.0250 
     58 CB        -79.9718   21.9826  -77.9306 C.3       3 UNK        -0.1996 
     59 N         -80.1414   23.6271  -76.1111 N.am      3 UNK        -0.4254 
     60 C         -79.8823   24.6877  -75.3333 C.2       2 UNK         0.5004 
     61 O         -78.8514   25.3570  -75.4075 O.2       2 UNK        -0.5226 
     62 CA        -80.9343   25.0614  -74.2763 C.3       2 UNK         0.0269 
     63 CB        -80.5772   24.4308  -72.9206 C.3       2 UNK        -0.1926 
     64 N         -81.0239   26.5166  -74.1182 N.am      2 UNK        -0.4687 
     65 C         -81.4646   27.3635  -75.0602 C.2       1 UNK         0.5165 
     66 O         -81.9420   26.9880  -76.1348 O.2       1 UNK        -0.5079 
     67 H67       -85.5553   29.9105  -75.9691 H         1 UNK         0.0900 
     68 H68       -84.3645   31.2123  -75.9558 H         1 UNK         0.0900 
     69 H69       -85.3448   30.9005  -74.5224 H         1 UNK         0.0900 
     70 H70       -82.3154   30.4633  -75.7476 H         1 UNK         0.2959 
     71 H71       -80.5843   29.1794  -75.5507 H         1 UNK         0.1079 
     72 H72       -80.4584   30.3606  -73.4589 H         1 UNK         0.0837 
     73 H73       -79.7010   28.8100  -73.3196 H         1 UNK         0.0837 
     74 H74       -80.6709   30.8992  -70.9305 H         1 UNK         0.0685 
     75 H75       -81.2461   29.7753  -69.7221 H         1 UNK         0.0685 
     76 H76       -79.9562   27.2275  -70.3916 H         1 UNK         0.1434 
     77 H77       -75.7380   27.8510  -69.9481 H         1 UNK         0.1329 
     78 H78       -78.3475   31.2002  -70.5279 H         1 UNK         0.1335 
     79 H79       -74.8248   30.0532  -69.8380 H         1 UNK         0.0680 
     80 H80       -75.9204   31.3615  -69.4674 H         1 UNK         0.0680 
     81 H81       -74.8775   28.9772  -72.2436 H         1 UNK         0.1032 
     82 H82       -75.3526   29.8426  -73.6700 H         1 UNK         0.1032 
     83 H83       -73.0581   31.1960  -73.2415 H         1 UNK         0.0461 
     84 H84       -72.1126   31.3422  -71.1444 H         1 UNK         0.3453 
     85 H85       -71.2249   30.0165  -70.4375 H         1 UNK         0.3453 
     86 H86       -73.5146   28.7549  -74.7704 H         1 UNK         0.2984 
     87 H87       -72.7787   29.5170  -77.2079 H         1 UNK         0.0554 
     88 H88       -70.6494   29.2345  -78.4818 H         1 UNK         0.0847 
     89 H89       -69.7207   29.5709  -77.0212 H         1 UNK         0.0847 
     90 H90       -70.7468   30.8129  -77.7187 H         1 UNK         0.0847 
     91 H91       -72.6974   27.3477  -76.9080 H         1 UNK         0.3141 
     92 H92       -70.3391   25.0021  -76.2115 H         1 UNK         0.0743 
     93 H93       -72.3863   25.5860  -74.0076 H         1 UNK         0.0784 
     94 H94       -71.6929   23.9995  -74.3522 H         1 UNK         0.0784 
     95 H95       -70.6698   25.3057  -73.7763 H         1 UNK         0.0784 
     96 H96       -73.2005   24.7666  -76.2465 H         1 UNK         0.3213 
     97 H97       -73.5597   25.0494  -79.8002 H         1 UNK         0.0855 
     98 H98       -73.9635   22.7074  -77.8628 H         1 UNK         0.0814 
     99 H99       -73.0032   22.6601  -79.3344 H         1 UNK         0.0814 
    100 H100      -74.7404   22.9015  -79.4319 H         1 UNK         0.0814 
    101 H101      -75.5194   24.6888  -77.7818 H         1 UNK         0.3105 
    102 H102      -76.0761   28.1798  -77.0690 H         1 UNK         0.0547 
    103 H103      -77.7253   25.9441  -78.3658 H         1 UNK         0.0837 
    104 H104      -78.3767   27.3630  -77.5520 H         1 UNK         0.0837 
    105 H105      -77.4551   27.5453  -79.0373 H         1 UNK         0.0837 
    106 H106      -77.1860   25.8345  -75.8958 H         1 UNK         0.3020 
    107 H107      -74.6690   25.3415  -73.4218 H         1 UNK         0.1245 
    108 H108      -76.2846   27.1662  -72.5668 H         1 UNK         0.0781 
    109 H109      -77.5987   26.1020  -72.9950 H         1 UNK         0.0781 
    110 H110      -78.5493   25.3439  -70.3689 H         1 UNK         0.0836 
    111 H111      -77.4249   25.5894  -69.0568 H         1 UNK         0.0836 
    112 H112      -77.1586   24.0318  -74.1030 H         1 UNK         0.3022 
    113 H113      -75.6433   21.5691  -76.1918 H         1 UNK         0.0747 
    114 H114      -76.6980   20.0726  -74.5164 H         1 UNK         0.0793 
    115 H115      -75.2415   20.7924  -73.8518 H         1 UNK         0.0793 
    116 H116      -76.8161   21.4002  -73.3604 H         1 UNK         0.0793 
    117 H117      -78.3304   21.9540  -75.2753 H         1 UNK         0.3047 
    118 H118      -79.3767   24.0381  -77.9887 H         1 UNK         0.0822 
    119 H119      -80.9857   22.1925  -78.2719 H         1 UNK         0.0807 
    120 H120      -80.0160   21.1338  -77.2471 H         1 UNK         0.0807 
    121 H121      -79.3983   21.6682  -78.8041 H         1 UNK         0.0807 
    122 H122      -81.0020   23.1190  -75.9643 H         1 UNK         0.2946 
    123 H123      -81.9110   24.6931  -74.5981 H         1 UNK         0.1144 
    124 H124      -81.3171   24.6803  -72.1597 H         1 UNK         0.0793 
    125 H125      -79.6031   24.7653  -72.5632 H         1 UNK         0.0793 
    126 H126      -80.5420   23.3429  -72.9917 H         1 UNK         0.0793 
    127 H127      -80.6620   26.9070  -73.2603 H         1 UNK         0.2896 
@<TRIPOS>BOND
     1    1    2 1    
     2    1   67 1    
     3    1   68 1    
     4    1   69 1    
     5    2    3 2    
     6    2    4 am   BACKBONE|DICT|INTERRES
     7    4    5 1    
     8    4   70 1    
     9    5    6 1    
    10    5   65 1    
    11    5   71 1    
    12    6    7 1    
    13    6   72 1    
    14    6   73 1    
    15    7    8 1    
    16    8    9 1    
    17    8   74 1    
    18    8   75 1    
    19    9   10 ar   
    20    9   14 ar   
    21   10   11 ar   
    22   10   76 1    
    23   11   12 ar   
    24   11   48 1    
    25   12   13 ar   
    26   12   77 1    
    27   13   14 ar   
    28   13   15 1    
    29   14   78 1    
    30   15   16 1    
    31   15   79 1    
    32   15   80 1    
    33   16   17 1    
    34   17   18 1    
    35   17   81 1    
    36   17   82 1    
    37   18   19 1    
    38   18   22 1    
    39   18   83 1    
    40   19   20 am   BACKBONE|DICT|INTERRES
    41   19   21 2    
    42   20   84 1    
    43   20   85 1    
    44   22   23 am   BACKBONE|DICT|INTERRES
    45   22   86 1    
    46   23   24 2    
    47   23   25 1    
    48   25   26 1    
    49   25   27 1    
    50   25   87 1    
    51   26   88 1    
    52   26   89 1    
    53   26   90 1    
    54   27   28 am   BACKBONE|DICT|INTERRES
    55   27   91 1    
    56   28   29 2    
    57   28   30 1    
    58   30   31 1    
    59   30   32 1    
    60   30   92 1    
    61   31   93 1    
    62   31   94 1    
    63   31   95 1    
    64   32   33 am   BACKBONE|DICT|INTERRES
    65   32   96 1    
    66   33   34 2    
    67   33   35 1    
    68   35   36 1    
    69   35   37 1    
    70   35   97 1    
    71   36   98 1    
    72   36   99 1    
    73   36  100 1    
    74   37   38 am   BACKBONE|DICT|INTERRES
    75   37  101 1    
    76   38   39 2    
    77   38   40 1    
    78   40   41 1    
    79   40   42 1    
    80   40  102 1    
    81   41  103 1    
    82   41  104 1    
    83   41  105 1    
    84   42   43 am   BACKBONE|DICT|INTERRES
    85   42  106 1    
    86   43   44 2    
    87   43   45 1    
    88   45   46 1    
    89   45   49 1    
    90   45  107 1    
    91   46   47 1    
    92   46  108 1    
    93   46  109 1    
    94   47   48 1    
    95   48  110 1    
    96   48  111 1    
    97   49   50 am   BACKBONE|DICT|INTERRES
    98   49  112 1    
    99   50   51 2    
   100   50   52 1    
   101   52   53 1    
   102   52   54 1    
   103   52  113 1    
   104   53  114 1    
   105   53  115 1    
   106   53  116 1    
   107   54   55 am   BACKBONE|DICT|INTERRES
   108   54  117 1    
   109   55   56 2    
   110   55   57 1    
   111   57   58 1    
   112   57   59 1    
   113   57  118 1    
   114   58  119 1    
   115   58  120 1    
   116   58  121 1    
   117   59   60 am   BACKBONE|DICT|INTERRES
   118   59  122 1    
   119   60   61 2    
   120   60   62 1    
   121   62   63 1    
   122   62   64 1    
   123   62  123 1    
   124   63  124 1    
   125   63  125 1    
   126   63  126 1    
   127   64   65 am   BACKBONE|DICT|INTERRES
   128   64  127 1    
   129   65   66 2    
@<TRIPOS>SUBSTRUCTURE
     1 UNK         1 GROUP             0       ****    0 ROOT    
