@<TRIPOS>MOLECULE
3R135
127   129    1
SMALL
USER_CHARGES


@<TRIPOS>ATOM
      1 CA        -83.8110   23.9546  -71.4067 C.3       0 UNK        -0.1998 
      2 C         -83.0556   25.0903  -72.0794 C.2       0 UNK         0.4909 
      3 O         -83.6194   25.7891  -72.9224 O.2       0 UNK        -0.5240 
      4 N         -81.7771   25.2753  -71.7271 N.am      1 UNK        -0.4739 
      5 CA        -80.8860   26.3257  -72.2376 C.3       1 UNK         0.0864 
      6 C6        -79.7182   26.6058  -71.2556 C.3       11 UNK        -0.0881 
      7 S7        -80.2670   27.2691  -69.6457 S.3       11 UNK        -0.2682 
      8 C8        -80.6423   29.0166  -70.0290 C.3       11 UNK         0.0289 
      9 C9        -79.5506   29.7049  -70.8399 C.ar      11 UNK        -0.0687 
     10 C10       -79.8208   30.1666  -72.1318 C.ar      11 UNK        -0.0823 
     11 C11       -78.8193   30.7740  -72.8960 C.ar      11 UNK        -0.0830 
     12 C12       -77.5364   30.9165  -72.3566 C.ar      11 UNK        -0.1021 
     13 C13       -77.2506   30.4470  -71.0713 C.ar      11 UNK        -0.0753 
     14 C14       -78.2662   29.8594  -70.3110 C.ar      11 UNK        -0.0933 
     15 C15       -75.8452   30.5663  -70.5010 C.3       11 UNK         0.0166 
     16 S16       -75.0479   28.9379  -70.3242 S.3       11 UNK        -0.2615 
     17 C17       -74.6762   28.4900  -72.0563 C.3       11 UNK        -0.0865 
     18 CA        -73.1717   28.6444  -72.3968 C.3       10 UNK         0.0862 
     19 C         -72.2872   27.5864  -71.6842 C.2       10 UNK         0.5551 
     20 N         -71.4520   27.9995  -70.7409 N.am      10 UNK        -0.7319 
     21 O         -72.3757   26.3935  -71.9649 O.2       10 UNK        -0.5018 
     22 N         -72.9481   28.5805  -73.8456 N.am      10 UNK        -0.4509 
     23 C         -71.9411   29.2035  -74.4735 C.2       10 UNK         0.4899 
     24 O         -71.1791   30.0008  -73.9240 O.2       10 UNK        -0.4839 
     25 CA        -71.7642   28.8759  -75.9688 C.3       9 UNK         0.0222 
     26 CB        -70.4600   29.4410  -76.5702 C.3       9 UNK        -0.1966 
     27 N         -71.8923   27.4410  -76.2401 N.am      9 UNK        -0.4218 
     28 C         -71.1326   26.4369  -75.7712 C.2       9 UNK         0.5020 
     29 O         -70.1199   26.5984  -75.0893 O.2       9 UNK        -0.5274 
     30 CA        -71.5827   25.0032  -76.1117 C.3       8 UNK         0.0270 
     31 CB        -71.8994   24.2151  -74.8283 C.3       8 UNK        -0.1976 
     32 N         -72.7713   25.0041  -76.9703 N.am      8 UNK        -0.4313 
     33 C         -72.8025   24.6049  -78.2478 C.2       8 UNK         0.5041 
     34 O         -71.8497   24.0915  -78.8356 O.2       8 UNK        -0.5577 
     35 CA        -74.1163   24.8485  -79.0089 C.3       7 UNK         0.0284 
     36 CB        -75.1891   23.8309  -78.5879 C.3       7 UNK        -0.1958 
     37 N         -74.6409   26.2048  -78.8312 N.am      7 UNK        -0.4454 
     38 C         -74.0505   27.3423  -79.2207 C.2       7 UNK         0.5089 
     39 O         -72.9619   27.3835  -79.7921 O.2       7 UNK        -0.5125 
     40 CA        -74.7731   28.6683  -78.8996 C.3       6 UNK         0.0408 
     41 CB        -75.7521   29.0507  -80.0262 C.3       6 UNK        -0.1791 
     42 N         -75.4210   28.7162  -77.5774 N.am      6 UNK        -0.4762 
     43 C         -76.4576   27.9923  -77.1299 C.2       6 UNK         0.5007 
     44 O         -77.0781   27.1804  -77.8192 O.2       6 UNK        -0.5032 
     45 CA        -76.8153   28.1375  -75.6381 C.3       5 UNK         0.0783 
     46 C46       -78.1738   28.8530  -75.4438 C.3       11 UNK        -0.0857 
     47 S47       -77.9855   30.6633  -75.5751 S.3       11 UNK        -0.2512 
     48 C48       -79.1373   31.2779  -74.3002 C.3       11 UNK         0.0225 
     49 N         -76.7910   26.8242  -74.9903 N.am      5 UNK        -0.4615 
     50 C         -75.7084   26.0436  -74.8812 C.2       4 UNK         0.5053 
     51 O         -74.5875   26.3969  -75.2519 O.2       4 UNK        -0.5105 
     52 CA        -75.8866   24.6435  -74.2771 C.3       4 UNK         0.0263 
     53 CB        -75.7417   24.6957  -72.7486 C.3       4 UNK        -0.1981 
     54 N         -77.1839   24.0522  -74.6175 N.am      4 UNK        -0.4224 
     55 C         -77.3536   22.8760  -75.2400 C.2       3 UNK         0.4895 
     56 O         -76.4237   22.1648  -75.6219 O.2       3 UNK        -0.5091 
     57 CA        -78.7964   22.3764  -75.4606 C.3       3 UNK         0.0250 
     58 CB        -79.1497   21.2958  -74.4252 C.3       3 UNK        -0.1996 
     59 N         -79.8049   23.4357  -75.3989 N.am      3 UNK        -0.4254 
     60 C         -80.0035   24.3602  -76.3477 C.2       2 UNK         0.5004 
     61 O         -79.4260   24.3538  -77.4344 O.2       2 UNK        -0.5226 
     62 CA        -81.0004   25.4947  -76.0320 C.3       2 UNK         0.0269 
     63 CB        -82.3345   25.2502  -76.7557 C.3       2 UNK        -0.1926 
     64 N         -81.2731   25.7312  -74.6049 N.am      2 UNK        -0.4687 
     65 C         -80.3665   26.0066  -73.6578 C.2       1 UNK         0.5165 
     66 O         -79.1551   25.9861  -73.8753 O.2       1 UNK        -0.5079 
     67 H67       -84.6813   24.3446  -70.8796 H         1 UNK         0.0900 
     68 H68       -84.1563   23.2398  -72.1531 H         1 UNK         0.0900 
     69 H69       -83.1898   23.4214  -70.6874 H         1 UNK         0.0900 
     70 H70       -81.3676   24.6664  -71.0326 H         1 UNK         0.2959 
     71 H71       -81.4639   27.2471  -72.3357 H         1 UNK         0.1079 
     72 H72       -78.9904   27.2951  -71.6867 H         1 UNK         0.0837 
     73 H73       -79.1598   25.6872  -71.0664 H         1 UNK         0.0837 
     74 H74       -81.5980   29.0598  -70.5534 H         1 UNK         0.0685 
     75 H75       -80.7857   29.5583  -69.0932 H         1 UNK         0.0685 
     76 H76       -80.8134   30.0498  -72.5449 H         1 UNK         0.1434 
     77 H77       -76.7578   31.3814  -72.9459 H         1 UNK         0.1329 
     78 H78       -78.0483   29.4920  -69.3173 H         1 UNK         0.1335 
     79 H79       -75.8985   31.0403  -69.5199 H         1 UNK         0.0680 
     80 H80       -75.2200   31.2115  -71.1205 H         1 UNK         0.0680 
     81 H81       -75.2742   29.1162  -72.7188 H         1 UNK         0.1032 
     82 H82       -75.0140   27.4692  -72.2324 H         1 UNK         0.1032 
     83 H83       -72.8715   29.6372  -72.0538 H         1 UNK         0.0461 
     84 H84       -70.8794   27.3222  -70.2624 H         1 UNK         0.3453 
     85 H85       -71.3825   28.9760  -70.5006 H         1 UNK         0.3453 
     86 H86       -73.4667   27.8669  -74.3462 H         1 UNK         0.2984 
     87 H87       -72.5948   29.3589  -76.4845 H         1 UNK         0.0554 
     88 H88       -70.4259   30.5272  -76.4776 H         1 UNK         0.0847 
     89 H89       -70.3778   29.2046  -77.6311 H         1 UNK         0.0847 
     90 H90       -69.5760   29.0459  -76.0687 H         1 UNK         0.0847 
     91 H91       -72.6989   27.1733  -76.7831 H         1 UNK         0.3141 
     92 H92       -70.7458   24.5159  -76.6157 H         1 UNK         0.0743 
     93 H93       -71.0160   24.1306  -74.1941 H         1 UNK         0.0784 
     94 H94       -72.6742   24.7023  -74.2355 H         1 UNK         0.0784 
     95 H95       -72.2346   23.2028  -75.0547 H         1 UNK         0.0784 
     96 H96       -73.6077   25.4031  -76.5522 H         1 UNK         0.3213 
     97 H97       -73.9125   24.7101  -80.0729 H         1 UNK         0.0855 
     98 H98       -75.4802   23.9583  -77.5449 H         1 UNK         0.0814 
     99 H99       -74.8274   22.8082  -78.7029 H         1 UNK         0.0814 
    100 H100      -76.0883   23.9267  -79.1969 H         1 UNK         0.0814 
    101 H101      -75.5632   26.2962  -78.4104 H         1 UNK         0.3105 
    102 H102      -74.0009   29.4389  -78.8695 H         1 UNK         0.0547 
    103 H103      -75.2322   29.1258  -80.9822 H         1 UNK         0.0837 
    104 H104      -76.2187   30.0170  -79.8351 H         1 UNK         0.0837 
    105 H105      -76.5459   28.3137  -80.1498 H         1 UNK         0.0837 
    106 H106      -74.9910   29.3593  -76.9277 H         1 UNK         0.3020 
    107 H107      -76.0404   28.7286  -75.1455 H         1 UNK         0.1245 
    108 H108      -78.5726   28.6169  -74.4571 H         1 UNK         0.0781 
    109 H109      -78.9259   28.5071  -76.1557 H         1 UNK         0.0781 
    110 H110      -80.1522   31.0032  -74.5920 H         1 UNK         0.0836 
    111 H111      -79.1052   32.3682  -74.2958 H         1 UNK         0.0836 
    112 H112      -77.6843   26.4876  -74.6369 H         1 UNK         0.3022 
    113 H113      -75.0764   24.0267  -74.6707 H         1 UNK         0.0747 
    114 H114      -74.7628   25.0822  -72.4628 H         1 UNK         0.0793 
    115 H115      -76.4988   25.3339  -72.2905 H         1 UNK         0.0793 
    116 H116      -75.8332   23.7019  -72.3103 H         1 UNK         0.0793 
    117 H117      -78.0058   24.5897  -74.3567 H         1 UNK         0.3047 
    118 H118      -78.8349   21.9239  -76.4540 H         1 UNK         0.0822 
    119 H119      -80.1389   20.8765  -74.6099 H         1 UNK         0.0807 
    120 H120      -79.1346   21.6898  -73.4082 H         1 UNK         0.0807 
    121 H121      -78.4379   20.4698  -74.4647 H         1 UNK         0.0807 
    122 H122      -80.3356   23.5141  -74.5439 H         1 UNK         0.2946 
    123 H123      -80.5580   26.4105  -76.4302 H         1 UNK         0.1144 
    124 H124      -82.8436   24.3653  -76.3716 H         1 UNK         0.0793 
    125 H125      -82.1797   25.1001  -77.8252 H         1 UNK         0.0793 
    126 H126      -83.0083   26.1001  -76.6447 H         1 UNK         0.0793 
    127 H127      -82.2484   25.7434  -74.3188 H         1 UNK         0.2896 
@<TRIPOS>BOND
     1    1    2 1    
     2    1   67 1    
     3    1   68 1    
     4    1   69 1    
     5    2    3 2    
     6    2    4 am   BACKBONE|DICT|INTERRES
     7    4    5 1    
     8    4   70 1    
     9    5    6 1    
    10    5   65 1    
    11    5   71 1    
    12    6    7 1    
    13    6   72 1    
    14    6   73 1    
    15    7    8 1    
    16    8    9 1    
    17    8   74 1    
    18    8   75 1    
    19    9   10 ar   
    20    9   14 ar   
    21   10   11 ar   
    22   10   76 1    
    23   11   12 ar   
    24   11   48 1    
    25   12   13 ar   
    26   12   77 1    
    27   13   14 ar   
    28   13   15 1    
    29   14   78 1    
    30   15   16 1    
    31   15   79 1    
    32   15   80 1    
    33   16   17 1    
    34   17   18 1    
    35   17   81 1    
    36   17   82 1    
    37   18   19 1    
    38   18   22 1    
    39   18   83 1    
    40   19   20 am   BACKBONE|DICT|INTERRES
    41   19   21 2    
    42   20   84 1    
    43   20   85 1    
    44   22   23 am   BACKBONE|DICT|INTERRES
    45   22   86 1    
    46   23   24 2    
    47   23   25 1    
    48   25   26 1    
    49   25   27 1    
    50   25   87 1    
    51   26   88 1    
    52   26   89 1    
    53   26   90 1    
    54   27   28 am   BACKBONE|DICT|INTERRES
    55   27   91 1    
    56   28   29 2    
    57   28   30 1    
    58   30   31 1    
    59   30   32 1    
    60   30   92 1    
    61   31   93 1    
    62   31   94 1    
    63   31   95 1    
    64   32   33 am   BACKBONE|DICT|INTERRES
    65   32   96 1    
    66   33   34 2    
    67   33   35 1    
    68   35   36 1    
    69   35   37 1    
    70   35   97 1    
    71   36   98 1    
    72   36   99 1    
    73   36  100 1    
    74   37   38 am   BACKBONE|DICT|INTERRES
    75   37  101 1    
    76   38   39 2    
    77   38   40 1    
    78   40   41 1    
    79   40   42 1    
    80   40  102 1    
    81   41  103 1    
    82   41  104 1    
    83   41  105 1    
    84   42   43 am   BACKBONE|DICT|INTERRES
    85   42  106 1    
    86   43   44 2    
    87   43   45 1    
    88   45   46 1    
    89   45   49 1    
    90   45  107 1    
    91   46   47 1    
    92   46  108 1    
    93   46  109 1    
    94   47   48 1    
    95   48  110 1    
    96   48  111 1    
    97   49   50 am   BACKBONE|DICT|INTERRES
    98   49  112 1    
    99   50   51 2    
   100   50   52 1    
   101   52   53 1    
   102   52   54 1    
   103   52  113 1    
   104   53  114 1    
   105   53  115 1    
   106   53  116 1    
   107   54   55 am   BACKBONE|DICT|INTERRES
   108   54  117 1    
   109   55   56 2    
   110   55   57 1    
   111   57   58 1    
   112   57   59 1    
   113   57  118 1    
   114   58  119 1    
   115   58  120 1    
   116   58  121 1    
   117   59   60 am   BACKBONE|DICT|INTERRES
   118   59  122 1    
   119   60   61 2    
   120   60   62 1    
   121   62   63 1    
   122   62   64 1    
   123   62  123 1    
   124   63  124 1    
   125   63  125 1    
   126   63  126 1    
   127   64   65 am   BACKBONE|DICT|INTERRES
   128   64  127 1    
   129   65   66 2    
@<TRIPOS>SUBSTRUCTURE
     1 UNK         1 GROUP             0       ****    0 ROOT    
