@<TRIPOS>MOLECULE
3R135
127   129    1
SMALL
USER_CHARGES


@<TRIPOS>ATOM
      1 CA        -86.0931   23.9992  -71.8650 C.3       0 UNK        -0.1998 
      2 C         -85.0390   24.5543  -72.8112 C.2       0 UNK         0.4909 
      3 O         -85.2326   24.5254  -74.0268 O.2       0 UNK        -0.5240 
      4 N         -83.9270   25.0628  -72.2624 N.am      1 UNK        -0.4739 
      5 CA        -82.7945   25.6135  -73.0190 C.3       1 UNK         0.0864 
      6 C6        -81.8626   26.4376  -72.0934 C.3       11 UNK        -0.0881 
      7 S7        -80.8147   27.6370  -72.9820 S.3       11 UNK        -0.2682 
      8 C8        -79.9121   28.3502  -71.5686 C.3       11 UNK         0.0289 
      9 C9        -78.7942   29.2963  -71.9915 C.ar      11 UNK        -0.0687 
     10 C10       -79.0826   30.4558  -72.7182 C.ar      11 UNK        -0.0823 
     11 C11       -78.0615   31.3428  -73.0738 C.ar      11 UNK        -0.0830 
     12 C12       -76.7502   31.0802  -72.6694 C.ar      11 UNK        -0.1021 
     13 C13       -76.4432   29.9155  -71.9616 C.ar      11 UNK        -0.0753 
     14 C14       -77.4701   29.0288  -71.6245 C.ar      11 UNK        -0.0933 
     15 C15       -75.0058   29.6361  -71.5439 C.3       11 UNK         0.0166 
     16 S16       -73.8841   29.4981  -72.9730 S.3       11 UNK        -0.2615 
     17 C17       -74.1306   27.7635  -73.4895 C.3       11 UNK        -0.0865 
     18 CA        -72.9983   26.8322  -72.9800 C.3       10 UNK         0.0862 
     19 C         -73.2844   25.3359  -73.3072 C.2       10 UNK         0.5551 
     20 N         -72.4043   24.6084  -73.9869 N.am      10 UNK        -0.7319 
     21 O         -74.3209   24.8108  -72.9150 O.2       10 UNK        -0.5018 
     22 N         -71.6752   27.2931  -73.4285 N.am      10 UNK        -0.4509 
     23 C         -70.5263   27.0703  -72.7772 C.2       10 UNK         0.4899 
     24 O         -70.4643   26.5310  -71.6710 O.2       10 UNK        -0.4839 
     25 CA        -69.2272   27.5210  -73.4826 C.3       9 UNK         0.0222 
     26 CB        -67.9888   26.7359  -72.9992 C.3       9 UNK        -0.1966 
     27 N         -69.3109   27.4965  -74.9506 N.am      9 UNK        -0.4218 
     28 C         -69.6096   26.4399  -75.7203 C.2       9 UNK         0.5020 
     29 O         -69.8302   25.3046  -75.2911 O.2       9 UNK        -0.5274 
     30 CA        -69.7194   26.7061  -77.2293 C.3       8 UNK         0.0270 
     31 CB        -68.5827   26.0061  -77.9921 C.3       8 UNK        -0.1976 
     32 N         -71.0109   26.2530  -77.7501 N.am      8 UNK        -0.4313 
     33 C         -72.1976   26.7619  -77.3936 C.2       8 UNK         0.5041 
     34 O         -72.3329   27.6935  -76.5954 O.2       8 UNK        -0.5577 
     35 CA        -73.4346   26.0936  -78.0146 C.3       7 UNK         0.0284 
     36 CB        -73.9793   24.9907  -77.0940 C.3       7 UNK        -0.1958 
     37 N         -74.4910   27.0710  -78.2853 N.am      7 UNK        -0.4454 
     38 C         -74.4759   27.9076  -79.3338 C.2       7 UNK         0.5089 
     39 O         -73.5740   27.9201  -80.1736 O.2       7 UNK        -0.5125 
     40 CA        -75.6662   28.8684  -79.5260 C.3       6 UNK         0.0408 
     41 CB        -76.5349   28.4094  -80.7091 C.3       6 UNK        -0.1791 
     42 N         -76.5202   29.0091  -78.3467 N.am      6 UNK        -0.4762 
     43 C         -76.2280   29.7496  -77.2681 C.2       6 UNK         0.5007 
     44 O         -75.2011   30.4203  -77.1618 O.2       6 UNK        -0.5032 
     45 CA        -77.2602   29.7303  -76.1162 C.3       5 UNK         0.0783 
     46 C46       -78.2442   30.9288  -76.2251 C.3       11 UNK        -0.0857 
     47 S47       -77.5586   32.4815  -75.5542 S.3       11 UNK        -0.2512 
     48 C48       -78.3638   32.5716  -73.9192 C.3       11 UNK         0.0225 
     49 N         -78.0032   28.4664  -76.0031 N.am      5 UNK        -0.4615 
     50 C         -77.4765   27.2437  -75.8559 C.2       4 UNK         0.5053 
     51 O         -76.2710   27.0015  -75.8846 O.2       4 UNK        -0.5105 
     52 CA        -78.4857   26.0903  -75.7711 C.3       4 UNK         0.0263 
     53 CB        -78.7399   25.5121  -77.1731 C.3       4 UNK        -0.1981 
     54 N         -78.0954   24.9981  -74.8770 N.am      4 UNK        -0.4224 
     55 C         -77.8022   25.0980  -73.5727 C.2       3 UNK         0.4895 
     56 O         -77.6639   26.1595  -72.9682 O.2       3 UNK        -0.5091 
     57 CA        -77.7692   23.7690  -72.7935 C.3       3 UNK         0.0250 
     58 CB        -77.3248   23.9471  -71.3284 C.3       3 UNK        -0.1996 
     59 N         -79.1082   23.1769  -72.7995 N.am      3 UNK        -0.4254 
     60 C         -79.6361   22.4558  -73.7976 C.2       2 UNK         0.5004 
     61 O         -78.9964   22.0732  -74.7780 O.2       2 UNK        -0.5226 
     62 CA        -81.1482   22.1833  -73.7168 C.3       2 UNK         0.0269 
     63 CB        -81.4343   20.9293  -72.8753 C.3       2 UNK        -0.1926 
     64 N         -81.8977   23.3236  -73.1735 N.am      2 UNK        -0.4687 
     65 C         -82.0207   24.5154  -73.7830 C.2       1 UNK         0.5165 
     66 O         -81.5706   24.7548  -74.9036 O.2       1 UNK        -0.5079 
     67 H67       -87.0351   24.5300  -72.0001 H         1 UNK         0.0900 
     68 H68       -86.2641   22.9432  -72.0723 H         1 UNK         0.0900 
     69 H69       -85.7964   24.0960  -70.8208 H         1 UNK         0.0900 
     70 H70       -83.8327   25.0687  -71.2564 H         1 UNK         0.2959 
     71 H71       -83.2116   26.2896  -73.7693 H         1 UNK         0.1079 
     72 H72       -81.2318   25.7846  -71.4867 H         1 UNK         0.0837 
     73 H73       -82.4630   27.0135  -71.3868 H         1 UNK         0.0837 
     74 H74       -80.6130   28.8896  -70.9302 H         1 UNK         0.0685 
     75 H75       -79.5072   27.5351  -70.9664 H         1 UNK         0.0685 
     76 H76       -80.1031   30.6571  -73.0144 H         1 UNK         0.1434 
     77 H77       -75.9589   31.7669  -72.9386 H         1 UNK         0.1329 
     78 H78       -77.2395   28.1279  -71.0725 H         1 UNK         0.1335 
     79 H79       -74.6626   30.4555  -70.9108 H         1 UNK         0.0680 
     80 H80       -74.9367   28.7311  -70.9381 H         1 UNK         0.0680 
     81 H81       -75.1102   27.4191  -73.1501 H         1 UNK         0.1032 
     82 H82       -74.1673   27.7406  -74.5796 H         1 UNK         0.1032 
     83 H83       -73.0160   26.8916  -71.8901 H         1 UNK         0.0461 
     84 H84       -72.6103   23.6396  -74.1661 H         1 UNK         0.3453 
     85 H85       -71.5311   25.0051  -74.3178 H         1 UNK         0.3453 
     86 H86       -71.6499   27.7114  -74.3500 H         1 UNK         0.2984 
     87 H87       -69.0836   28.5660  -73.2045 H         1 UNK         0.0554 
     88 H88       -67.8369   26.8623  -71.9266 H         1 UNK         0.0847 
     89 H89       -67.0811   27.0805  -73.4945 H         1 UNK         0.0847 
     90 H90       -68.0892   25.6667  -73.1889 H         1 UNK         0.0847 
     91 H91       -69.1776   28.3896  -75.4058 H         1 UNK         0.3141 
     92 H92       -69.6450   27.7803  -77.4121 H         1 UNK         0.0743 
     93 H93       -68.6186   24.9230  -77.8667 H         1 UNK         0.0784 
     94 H94       -68.6267   26.2232  -79.0597 H         1 UNK         0.0784 
     95 H95       -67.6087   26.3426  -77.6340 H         1 UNK         0.0784 
     96 H96       -70.9890   25.4615  -78.3767 H         1 UNK         0.3213 
     97 H97       -73.1464   25.6297  -78.9607 H         1 UNK         0.0855 
     98 H98       -74.2585   25.3849  -76.1174 H         1 UNK         0.0814 
     99 H99       -73.2309   24.2152  -76.9271 H         1 UNK         0.0814 
    100 H100      -74.8583   24.5097  -77.5230 H         1 UNK         0.0814 
    101 H101      -75.2112   27.1666  -77.5754 H         1 UNK         0.3105 
    102 H102      -75.2538   29.8493  -79.7720 H         1 UNK         0.0547 
    103 H103      -77.3407   29.1158  -80.9093 H         1 UNK         0.0837 
    104 H104      -76.9811   27.4308  -80.5274 H         1 UNK         0.0837 
    105 H105      -75.9429   28.3316  -81.6222 H         1 UNK         0.0837 
    106 H106      -77.3820   28.4831  -78.3424 H         1 UNK         0.3020 
    107 H107      -76.6889   29.8180  -75.1894 H         1 UNK         0.1245 
    108 H108      -79.1686   30.7157  -75.6862 H         1 UNK         0.0781 
    109 H109      -78.5525   31.0975  -77.2590 H         1 UNK         0.0781 
    110 H110      -79.4389   32.6990  -74.0557 H         1 UNK         0.0836 
    111 H111      -78.0126   33.4630  -73.3975 H         1 UNK         0.0836 
    112 H112      -79.0088   28.5525  -75.9852 H         1 UNK         0.3022 
    113 H113      -79.4269   26.4859  -75.3863 H         1 UNK         0.0747 
    114 H114      -79.5153   24.7457  -77.1494 H         1 UNK         0.0793 
    115 H115      -79.0752   26.2860  -77.8647 H         1 UNK         0.0793 
    116 H116      -77.8371   25.0661  -77.5930 H         1 UNK         0.0793 
    117 H117      -78.2112   24.0624  -75.2456 H         1 UNK         0.3047 
    118 H118      -77.0606   23.1020  -73.2895 H         1 UNK         0.0822 
    119 H119      -77.2701   22.9888  -70.8119 H         1 UNK         0.0807 
    120 H120      -78.0077   24.5907  -70.7724 H         1 UNK         0.0807 
    121 H121      -76.3356   24.4014  -71.2718 H         1 UNK         0.0807 
    122 H122      -79.7258   23.4691  -72.0569 H         1 UNK         0.2946 
    123 H123      -81.5015   22.0025  -74.7348 H         1 UNK         0.1144 
    124 H124      -81.1224   21.0558  -71.8378 H         1 UNK         0.0793 
    125 H125      -80.9013   20.0642  -73.2727 H         1 UNK         0.0793 
    126 H126      -82.4963   20.6828  -72.8796 H         1 UNK         0.0793 
    127 H127      -82.3347   23.1994  -72.2717 H         1 UNK         0.2896 
@<TRIPOS>BOND
     1    1    2 1    
     2    1   67 1    
     3    1   68 1    
     4    1   69 1    
     5    2    3 2    
     6    2    4 am   BACKBONE|DICT|INTERRES
     7    4    5 1    
     8    4   70 1    
     9    5    6 1    
    10    5   65 1    
    11    5   71 1    
    12    6    7 1    
    13    6   72 1    
    14    6   73 1    
    15    7    8 1    
    16    8    9 1    
    17    8   74 1    
    18    8   75 1    
    19    9   10 ar   
    20    9   14 ar   
    21   10   11 ar   
    22   10   76 1    
    23   11   12 ar   
    24   11   48 1    
    25   12   13 ar   
    26   12   77 1    
    27   13   14 ar   
    28   13   15 1    
    29   14   78 1    
    30   15   16 1    
    31   15   79 1    
    32   15   80 1    
    33   16   17 1    
    34   17   18 1    
    35   17   81 1    
    36   17   82 1    
    37   18   19 1    
    38   18   22 1    
    39   18   83 1    
    40   19   20 am   BACKBONE|DICT|INTERRES
    41   19   21 2    
    42   20   84 1    
    43   20   85 1    
    44   22   23 am   BACKBONE|DICT|INTERRES
    45   22   86 1    
    46   23   24 2    
    47   23   25 1    
    48   25   26 1    
    49   25   27 1    
    50   25   87 1    
    51   26   88 1    
    52   26   89 1    
    53   26   90 1    
    54   27   28 am   BACKBONE|DICT|INTERRES
    55   27   91 1    
    56   28   29 2    
    57   28   30 1    
    58   30   31 1    
    59   30   32 1    
    60   30   92 1    
    61   31   93 1    
    62   31   94 1    
    63   31   95 1    
    64   32   33 am   BACKBONE|DICT|INTERRES
    65   32   96 1    
    66   33   34 2    
    67   33   35 1    
    68   35   36 1    
    69   35   37 1    
    70   35   97 1    
    71   36   98 1    
    72   36   99 1    
    73   36  100 1    
    74   37   38 am   BACKBONE|DICT|INTERRES
    75   37  101 1    
    76   38   39 2    
    77   38   40 1    
    78   40   41 1    
    79   40   42 1    
    80   40  102 1    
    81   41  103 1    
    82   41  104 1    
    83   41  105 1    
    84   42   43 am   BACKBONE|DICT|INTERRES
    85   42  106 1    
    86   43   44 2    
    87   43   45 1    
    88   45   46 1    
    89   45   49 1    
    90   45  107 1    
    91   46   47 1    
    92   46  108 1    
    93   46  109 1    
    94   47   48 1    
    95   48  110 1    
    96   48  111 1    
    97   49   50 am   BACKBONE|DICT|INTERRES
    98   49  112 1    
    99   50   51 2    
   100   50   52 1    
   101   52   53 1    
   102   52   54 1    
   103   52  113 1    
   104   53  114 1    
   105   53  115 1    
   106   53  116 1    
   107   54   55 am   BACKBONE|DICT|INTERRES
   108   54  117 1    
   109   55   56 2    
   110   55   57 1    
   111   57   58 1    
   112   57   59 1    
   113   57  118 1    
   114   58  119 1    
   115   58  120 1    
   116   58  121 1    
   117   59   60 am   BACKBONE|DICT|INTERRES
   118   59  122 1    
   119   60   61 2    
   120   60   62 1    
   121   62   63 1    
   122   62   64 1    
   123   62  123 1    
   124   63  124 1    
   125   63  125 1    
   126   63  126 1    
   127   64   65 am   BACKBONE|DICT|INTERRES
   128   64  127 1    
   129   65   66 2    
@<TRIPOS>SUBSTRUCTURE
     1 UNK         1 GROUP             0       ****    0 ROOT    
