@<TRIPOS>MOLECULE
3R135
127   129    1
SMALL
USER_CHARGES


@<TRIPOS>ATOM
      1 CA        -83.0429   26.0370  -73.5691 C.3       0 UNK        -0.1998 
      2 C         -81.5470   25.7941  -73.4391 C.2       0 UNK         0.4909 
      3 O         -80.8713   25.6036  -74.4489 O.2       0 UNK        -0.5240 
      4 N         -81.0269   25.8086  -72.2046 N.am      1 UNK        -0.4739 
      5 CA        -79.6167   25.5670  -71.8888 C.3       1 UNK         0.0864 
      6 C6        -79.3007   25.9459  -70.4202 C.3       11 UNK        -0.0881 
      7 S7        -77.5296   26.2984  -70.1643 S.3       11 UNK        -0.2682 
      8 C8        -77.5461   28.0749  -69.7695 C.3       11 UNK         0.0289 
      9 C9        -77.6606   28.9484  -71.0115 C.ar      11 UNK        -0.0687 
     10 C10       -78.9146   29.2869  -71.5316 C.ar      11 UNK        -0.0823 
     11 C11       -79.0215   30.1430  -72.6319 C.ar      11 UNK        -0.0830 
     12 C12       -77.8598   30.6680  -73.2074 C.ar      11 UNK        -0.1021 
     13 C13       -76.6012   30.3274  -72.7059 C.ar      11 UNK        -0.0753 
     14 C14       -76.5071   29.4639  -71.6111 C.ar      11 UNK        -0.0933 
     15 C15       -75.3458   30.9278  -73.3174 C.3       11 UNK         0.0166 
     16 S16       -74.5253   29.7639  -74.4472 S.3       11 UNK        -0.2615 
     17 C17       -73.1048   30.7775  -75.0038 C.3       11 UNK        -0.0865 
     18 CA        -71.7671   30.4303  -74.2984 C.3       10 UNK         0.0862 
     19 C         -71.7662   30.8962  -72.8107 C.2       10 UNK         0.5551 
     20 N         -71.8791   30.0030  -71.8334 N.am      10 UNK        -0.7319 
     21 O         -71.6587   32.0908  -72.5455 O.2       10 UNK        -0.5018 
     22 N         -71.4142   29.0205  -74.5044 N.am      10 UNK        -0.4509 
     23 C         -70.2461   28.4545  -74.1765 C.2       10 UNK         0.4899 
     24 O         -69.2433   29.0992  -73.8656 O.2       10 UNK        -0.4839 
     25 CA        -70.1877   26.9104  -74.1801 C.3       9 UNK         0.0222 
     26 CB        -69.3100   26.3672  -73.0333 C.3       9 UNK        -0.1966 
     27 N         -71.5019   26.2484  -74.1687 N.am      9 UNK        -0.4218 
     28 C         -72.4974   26.3801  -73.2786 C.2       9 UNK         0.5020 
     29 O         -72.4242   27.1052  -72.2840 O.2       9 UNK        -0.5274 
     30 CA        -73.8041   25.6097  -73.5778 C.3       8 UNK         0.0270 
     31 CB        -74.9826   26.1126  -72.7241 C.3       8 UNK        -0.1976 
     32 N         -74.2047   25.6496  -74.9914 N.am      8 UNK        -0.4313 
     33 C         -73.6279   24.9760  -75.9968 C.2       8 UNK         0.5041 
     34 O         -72.6465   24.2481  -75.8458 O.2       8 UNK        -0.5577 
     35 CA        -74.2149   25.1538  -77.4066 C.3       7 UNK         0.0284 
     36 CB        -75.1495   23.9819  -77.7459 C.3       7 UNK        -0.1958 
     37 N         -74.9433   26.4107  -77.5878 N.am      7 UNK        -0.4454 
     38 C         -74.3778   27.6254  -77.6780 C.2       7 UNK         0.5089 
     39 O         -73.1676   27.8275  -77.5843 O.2       7 UNK        -0.5125 
     40 CA        -75.3303   28.8104  -77.8934 C.3       6 UNK         0.0408 
     41 CB        -75.5963   29.0130  -79.3979 C.3       6 UNK        -0.1791 
     42 N         -76.5728   28.5798  -77.1587 N.am      6 UNK        -0.4762 
     43 C         -77.5900   29.4224  -76.9662 C.2       6 UNK         0.5007 
     44 O         -77.6303   30.5659  -77.4232 O.2       6 UNK        -0.5032 
     45 CA        -78.7694   28.8562  -76.1389 C.3       5 UNK         0.0783 
     46 C46       -79.8730   29.9132  -75.8730 C.3       11 UNK        -0.0857 
     47 S47       -80.9599   29.4178  -74.4954 S.3       11 UNK        -0.2512 
     48 C48       -80.3939   30.5315  -73.1680 C.3       11 UNK         0.0225 
     49 N         -79.3320   27.6565  -76.7757 N.am      5 UNK        -0.4615 
     50 C         -78.7741   26.4410  -76.8205 C.2       4 UNK         0.5053 
     51 O         -77.6996   26.1516  -76.2781 O.2       4 UNK        -0.5105 
     52 CA        -79.4869   25.4041  -77.6955 C.3       4 UNK         0.0263 
     53 CB        -79.2250   25.6954  -79.1878 C.3       4 UNK        -0.1981 
     54 N         -78.9774   24.0868  -77.3375 N.am      4 UNK        -0.4224 
     55 C         -79.4745   22.8989  -77.7027 C.2       3 UNK         0.4895 
     56 O         -80.4487   22.7568  -78.4427 O.2       3 UNK        -0.5091 
     57 CA        -78.7640   21.6494  -77.1452 C.3       3 UNK         0.0250 
     58 CB        -77.7729   21.0861  -78.1770 C.3       3 UNK        -0.1996 
     59 N         -78.0591   21.9102  -75.8848 N.am      3 UNK        -0.4254 
     60 C         -78.6748   22.1332  -74.7149 C.2       2 UNK         0.5004 
     61 O         -79.8915   22.0126  -74.5643 O.2       2 UNK        -0.5226 
     62 CA        -77.8028   22.5795  -73.5245 C.3       2 UNK         0.0269 
     63 CB        -76.2918   22.6498  -73.8329 C.3       2 UNK        -0.1926 
     64 N         -78.2481   23.8939  -73.0586 N.am      2 UNK        -0.4687 
     65 C         -79.2399   24.0990  -72.1823 C.2       1 UNK         0.5165 
     66 O         -79.8423   23.1946  -71.5970 O.2       1 UNK        -0.5079 
     67 H67       -83.2243   26.9228  -74.1774 H         1 UNK         0.0900 
     68 H68       -83.5185   26.1876  -72.6002 H         1 UNK         0.0900 
     69 H69       -83.5200   25.1858  -74.0540 H         1 UNK         0.0900 
     70 H70       -81.6398   25.9333  -71.4119 H         1 UNK         0.2959 
     71 H71       -79.0358   26.2204  -72.5451 H         1 UNK         0.1079 
     72 H72       -79.8787   26.8204  -70.1223 H         1 UNK         0.0837 
     73 H73       -79.6067   25.1585  -69.7281 H         1 UNK         0.0837 
     74 H74       -78.3552   28.2963  -69.0720 H         1 UNK         0.0685 
     75 H75       -76.6239   28.3144  -69.2377 H         1 UNK         0.0685 
     76 H76       -79.8123   28.9014  -71.0699 H         1 UNK         0.1434 
     77 H77       -77.9303   31.3522  -74.0410 H         1 UNK         0.1329 
     78 H78       -75.5330   29.2088  -71.2154 H         1 UNK         0.1335 
     79 H79       -75.5889   31.8434  -73.8589 H         1 UNK         0.0680 
     80 H80       -74.6580   31.2140  -72.5211 H         1 UNK         0.0680 
     81 H81       -73.3350   31.8390  -74.8932 H         1 UNK         0.1032 
     82 H82       -72.9908   30.6217  -76.0775 H         1 UNK         0.1032 
     83 H83       -70.9874   31.0145  -74.7908 H         1 UNK         0.0461 
     84 H84       -71.8720   30.3132  -70.8757 H         1 UNK         0.3453 
     85 H85       -72.0070   29.0179  -72.0462 H         1 UNK         0.3453 
     86 H86       -72.1843   28.4156  -74.7486 H         1 UNK         0.2984 
     87 H87       -69.7170   26.6286  -75.1228 H         1 UNK         0.0554 
     88 H88       -69.2548   25.2790  -73.0563 H         1 UNK         0.0847 
     89 H89       -69.6951   26.6632  -72.0568 H         1 UNK         0.0847 
     90 H90       -68.2882   26.7418  -73.1066 H         1 UNK         0.0847 
     91 H91       -71.6782   25.5992  -74.9331 H         1 UNK         0.3141 
     92 H92       -73.6192   24.5680  -73.3079 H         1 UNK         0.0743 
     93 H93       -75.2127   27.1580  -72.9309 H         1 UNK         0.0784 
     94 H94       -75.8851   25.5310  -72.9031 H         1 UNK         0.0784 
     95 H95       -74.7596   26.0337  -71.6592 H         1 UNK         0.0784 
     96 H96       -74.9860   26.2475  -75.2166 H         1 UNK         0.3213 
     97 H97       -73.3798   25.1411  -78.1107 H         1 UNK         0.0855 
     98 H98       -76.0144   23.9542  -77.0843 H         1 UNK         0.0814 
     99 H99       -74.6306   23.0271  -77.6473 H         1 UNK         0.0814 
    100 H100      -75.5126   24.0467  -78.7718 H         1 UNK         0.0814 
    101 H101      -75.9463   26.3304  -77.6789 H         1 UNK         0.3105 
    102 H102      -74.8547   29.7071  -77.4933 H         1 UNK         0.0547 
    103 H103      -74.6602   29.1150  -79.9486 H         1 UNK         0.0837 
    104 H104      -76.1394   28.1713  -79.8290 H         1 UNK         0.0837 
    105 H105      -76.1754   29.9165  -79.5867 H         1 UNK         0.0837 
    106 H106      -76.6666   27.6718  -76.7133 H         1 UNK         0.3020 
    107 H107      -78.3453   28.5616  -75.1754 H         1 UNK         0.1245 
    108 H108      -79.4515   30.8926  -75.6461 H         1 UNK         0.0781 
    109 H109      -80.4836   30.0635  -76.7649 H         1 UNK         0.0781 
    110 H110      -80.3849   31.5617  -73.5274 H         1 UNK         0.0836 
    111 H111      -81.1261   30.5061  -72.3596 H         1 UNK         0.0836 
    112 H112      -80.2059   27.7971  -77.2605 H         1 UNK         0.3022 
    113 H113      -80.5573   25.4393  -77.4824 H         1 UNK         0.0747 
    114 H114      -79.7511   24.9921  -79.8330 H         1 UNK         0.0793 
    115 H115      -79.5667   26.6938  -79.4633 H         1 UNK         0.0793 
    116 H116      -78.1626   25.6362  -79.4279 H         1 UNK         0.0793 
    117 H117      -78.2044   24.1226  -76.6864 H         1 UNK         0.3047 
    118 H118      -79.5293   20.8922  -76.9605 H         1 UNK         0.0822 
    119 H119      -77.3031   20.1701  -77.8184 H         1 UNK         0.0807 
    120 H120      -76.9837   21.7990  -78.4157 H         1 UNK         0.0807 
    121 H121      -78.2819   20.8424  -79.1107 H         1 UNK         0.0807 
    122 H122      -77.0532   21.9804  -75.9268 H         1 UNK         0.2946 
    123 H123      -77.9488   21.8415  -72.7322 H         1 UNK         0.1144 
    124 H124      -75.9055   21.6843  -74.1623 H         1 UNK         0.0793 
    125 H125      -75.7278   22.9223  -72.9405 H         1 UNK         0.0793 
    126 H126      -76.0610   23.3879  -74.6012 H         1 UNK         0.0793 
    127 H127      -77.8498   24.6943  -73.5277 H         1 UNK         0.2896 
@<TRIPOS>BOND
     1    1    2 1    
     2    1   67 1    
     3    1   68 1    
     4    1   69 1    
     5    2    3 2    
     6    2    4 am   BACKBONE|DICT|INTERRES
     7    4    5 1    
     8    4   70 1    
     9    5    6 1    
    10    5   65 1    
    11    5   71 1    
    12    6    7 1    
    13    6   72 1    
    14    6   73 1    
    15    7    8 1    
    16    8    9 1    
    17    8   74 1    
    18    8   75 1    
    19    9   10 ar   
    20    9   14 ar   
    21   10   11 ar   
    22   10   76 1    
    23   11   12 ar   
    24   11   48 1    
    25   12   13 ar   
    26   12   77 1    
    27   13   14 ar   
    28   13   15 1    
    29   14   78 1    
    30   15   16 1    
    31   15   79 1    
    32   15   80 1    
    33   16   17 1    
    34   17   18 1    
    35   17   81 1    
    36   17   82 1    
    37   18   19 1    
    38   18   22 1    
    39   18   83 1    
    40   19   20 am   BACKBONE|DICT|INTERRES
    41   19   21 2    
    42   20   84 1    
    43   20   85 1    
    44   22   23 am   BACKBONE|DICT|INTERRES
    45   22   86 1    
    46   23   24 2    
    47   23   25 1    
    48   25   26 1    
    49   25   27 1    
    50   25   87 1    
    51   26   88 1    
    52   26   89 1    
    53   26   90 1    
    54   27   28 am   BACKBONE|DICT|INTERRES
    55   27   91 1    
    56   28   29 2    
    57   28   30 1    
    58   30   31 1    
    59   30   32 1    
    60   30   92 1    
    61   31   93 1    
    62   31   94 1    
    63   31   95 1    
    64   32   33 am   BACKBONE|DICT|INTERRES
    65   32   96 1    
    66   33   34 2    
    67   33   35 1    
    68   35   36 1    
    69   35   37 1    
    70   35   97 1    
    71   36   98 1    
    72   36   99 1    
    73   36  100 1    
    74   37   38 am   BACKBONE|DICT|INTERRES
    75   37  101 1    
    76   38   39 2    
    77   38   40 1    
    78   40   41 1    
    79   40   42 1    
    80   40  102 1    
    81   41  103 1    
    82   41  104 1    
    83   41  105 1    
    84   42   43 am   BACKBONE|DICT|INTERRES
    85   42  106 1    
    86   43   44 2    
    87   43   45 1    
    88   45   46 1    
    89   45   49 1    
    90   45  107 1    
    91   46   47 1    
    92   46  108 1    
    93   46  109 1    
    94   47   48 1    
    95   48  110 1    
    96   48  111 1    
    97   49   50 am   BACKBONE|DICT|INTERRES
    98   49  112 1    
    99   50   51 2    
   100   50   52 1    
   101   52   53 1    
   102   52   54 1    
   103   52  113 1    
   104   53  114 1    
   105   53  115 1    
   106   53  116 1    
   107   54   55 am   BACKBONE|DICT|INTERRES
   108   54  117 1    
   109   55   56 2    
   110   55   57 1    
   111   57   58 1    
   112   57   59 1    
   113   57  118 1    
   114   58  119 1    
   115   58  120 1    
   116   58  121 1    
   117   59   60 am   BACKBONE|DICT|INTERRES
   118   59  122 1    
   119   60   61 2    
   120   60   62 1    
   121   62   63 1    
   122   62   64 1    
   123   62  123 1    
   124   63  124 1    
   125   63  125 1    
   126   63  126 1    
   127   64   65 am   BACKBONE|DICT|INTERRES
   128   64  127 1    
   129   65   66 2    
@<TRIPOS>SUBSTRUCTURE
     1 UNK         1 GROUP             0       ****    0 ROOT    
