@<TRIPOS>MOLECULE
3R135
127   129    1
SMALL
USER_CHARGES


@<TRIPOS>ATOM
      1 CA        -83.8663   29.8290  -74.4989 C.3       0 UNK        -0.1998 
      2 C         -82.5660   29.0654  -74.2984 C.2       0 UNK         0.4909 
      3 O         -81.6408   29.2165  -75.0954 O.2       0 UNK        -0.5240 
      4 N         -82.4892   28.2533  -73.2351 N.am      1 UNK        -0.4739 
      5 CA        -81.3374   27.4070  -72.9045 C.3       1 UNK         0.0864 
      6 C6        -81.4180   26.9245  -71.4336 C.3       11 UNK        -0.0881 
      7 S7        -79.9245   26.0863  -70.8031 S.3       11 UNK        -0.2682 
      8 C8        -78.9664   27.4442  -70.0530 C.3       11 UNK         0.0289 
      9 C9        -77.9611   28.0288  -71.0350 C.ar      11 UNK        -0.0687 
     10 C10       -78.3121   29.1096  -71.8483 C.ar      11 UNK        -0.0823 
     11 C11       -77.4069   29.6223  -72.7822 C.ar      11 UNK        -0.0830 
     12 C12       -76.1156   29.0911  -72.8459 C.ar      11 UNK        -0.1021 
     13 C13       -75.7492   28.0128  -72.0367 C.ar      11 UNK        -0.0753 
     14 C14       -76.6775   27.4823  -71.1360 C.ar      11 UNK        -0.0933 
     15 C15       -74.3650   27.3967  -72.1752 C.3       11 UNK         0.0166 
     16 S16       -73.2945   27.7278  -70.7424 S.3       11 UNK        -0.2615 
     17 C17       -73.1312   29.5496  -70.7801 C.3       11 UNK        -0.0865 
     18 CA        -71.8009   30.0713  -71.3892 C.3       10 UNK         0.0862 
     19 C         -70.5296   29.6781  -70.5816 C.2       10 UNK         0.5551 
     20 N         -69.4059   29.3738  -71.2219 N.am      10 UNK        -0.7319 
     21 O         -70.5487   29.6766  -69.3531 O.2       10 UNK        -0.5018 
     22 N         -71.6957   29.8071  -72.8346 N.am      10 UNK        -0.4509 
     23 C         -72.1553   30.6177  -73.7966 C.2       10 UNK         0.4899 
     24 O         -72.7996   31.6432  -73.5744 O.2       10 UNK        -0.4839 
     25 CA        -71.8196   30.2586  -75.2564 C.3       9 UNK         0.0222 
     26 CB        -70.6782   31.1517  -75.7716 C.3       9 UNK        -0.1966 
     27 N         -71.4450   28.8531  -75.4416 N.am      9 UNK        -0.4218 
     28 C         -72.3253   27.8601  -75.6149 C.2       9 UNK         0.5020 
     29 O         -73.5438   28.0260  -75.6539 O.2       9 UNK        -0.5274 
     30 CA        -71.7363   26.4503  -75.7337 C.3       8 UNK         0.0270 
     31 CB        -71.3794   25.8875  -74.3455 C.3       8 UNK        -0.1976 
     32 N         -72.6943   25.5546  -76.3797 N.am      8 UNK        -0.4313 
     33 C         -72.3705   24.5742  -77.2312 C.2       8 UNK         0.5041 
     34 O         -71.2155   24.3323  -77.5872 O.2       8 UNK        -0.5577 
     35 CA        -73.5106   23.6950  -77.7730 C.3       7 UNK         0.0284 
     36 CB        -73.8390   22.5693  -76.7787 C.3       7 UNK        -0.1958 
     37 N         -74.7336   24.4341  -78.0871 N.am      7 UNK        -0.4454 
     38 C         -74.8730   25.2987  -79.1022 C.2       7 UNK         0.5089 
     39 O         -73.9717   25.5852  -79.8906 O.2       7 UNK        -0.5125 
     40 CA        -76.2558   25.9518  -79.2677 C.3       6 UNK         0.0408 
     41 CB        -77.2219   25.0198  -80.0172 C.3       6 UNK        -0.1791 
     42 N         -76.8188   26.3166  -77.9665 N.am      6 UNK        -0.4762 
     43 C         -76.5465   27.4688  -77.3350 C.2       6 UNK         0.5007 
     44 O         -75.9429   28.3986  -77.8718 O.2       6 UNK        -0.5032 
     45 CA        -77.0111   27.6114  -75.8670 C.3       5 UNK         0.0783 
     46 C46       -78.1498   28.6578  -75.7067 C.3       11 UNK        -0.0857 
     47 S47       -77.4958   30.3536  -75.4957 S.3       11 UNK        -0.2512 
     48 C48       -77.8450   30.7268  -73.7387 C.3       11 UNK         0.0225 
     49 N         -77.3494   26.3262  -75.2402 N.am      5 UNK        -0.4615 
     50 C         -76.4450   25.4060  -74.8748 C.2       4 UNK         0.5053 
     51 O         -75.2342   25.5278  -75.0465 O.2       4 UNK        -0.5105 
     52 CA        -76.9735   24.0979  -74.2667 C.3       4 UNK         0.0263 
     53 CB        -77.3187   24.2926  -72.7861 C.3       4 UNK        -0.1981 
     54 N         -78.1299   23.5468  -74.9759 N.am      4 UNK        -0.4224 
     55 C         -78.1436   23.1784  -76.2624 C.2       3 UNK         0.4895 
     56 O         -77.1772   23.3121  -77.0126 O.2       3 UNK        -0.5091 
     57 CA        -79.4476   22.5855  -76.8273 C.3       3 UNK         0.0250 
     58 CB        -79.5742   21.0883  -76.4849 C.3       3 UNK        -0.1996 
     59 N         -80.6591   23.3386  -76.4701 N.am      3 UNK        -0.4254 
     60 C         -81.2249   23.4992  -75.2651 C.2       2 UNK         0.5004 
     61 O         -80.8368   22.9482  -74.2321 O.2       2 UNK        -0.5226 
     62 CA        -82.4057   24.4849  -75.2030 C.3       2 UNK         0.0269 
     63 CB        -83.7253   23.7289  -74.9776 C.3       2 UNK        -0.1926 
     64 N         -82.2619   25.5212  -74.1718 N.am      2 UNK        -0.4687 
     65 C         -81.1711   26.2688  -73.9323 C.2       1 UNK         0.5165 
     66 O         -80.0993   26.1445  -74.5278 O.2       1 UNK        -0.5079 
     67 H67       -84.5938   29.6099  -73.7176 H         1 UNK         0.0900 
     68 H68       -83.6754   30.9018  -74.4932 H         1 UNK         0.0900 
     69 H69       -84.3101   29.5669  -75.4589 H         1 UNK         0.0900 
     70 H70       -83.2844   28.1797  -72.6163 H         1 UNK         0.2959 
     71 H71       -80.4501   28.0288  -73.0073 H         1 UNK         0.1079 
     72 H72       -82.2589   26.2403  -71.3073 H         1 UNK         0.0837 
     73 H73       -81.6349   27.7706  -70.7798 H         1 UNK         0.0837 
     74 H74       -79.6316   28.2209  -69.6736 H         1 UNK         0.0685 
     75 H75       -78.4375   27.0530  -69.1827 H         1 UNK         0.0685 
     76 H76       -79.3027   29.5355  -71.7700 H         1 UNK         0.1434 
     77 H77       -75.4064   29.4920  -73.5581 H         1 UNK         0.1329 
     78 H78       -76.4000   26.6405  -70.5166 H         1 UNK         0.1335 
     79 H79       -73.8703   27.7636  -73.0730 H         1 UNK         0.0680 
     80 H80       -74.4636   26.3181  -72.3032 H         1 UNK         0.0680 
     81 H81       -73.9721   29.9906  -71.3144 H         1 UNK         0.1032 
     82 H82       -73.2330   29.9102  -69.7551 H         1 UNK         0.1032 
     83 H83       -71.8233   31.1561  -71.2681 H         1 UNK         0.0461 
     84 H84       -68.5903   29.1296  -70.6821 H         1 UNK         0.3453 
     85 H85       -69.3384   29.4430  -72.2234 H         1 UNK         0.3453 
     86 H86       -71.2050   28.9643  -73.0909 H         1 UNK         0.2984 
     87 H87       -72.7070   30.4726  -75.8566 H         1 UNK         0.0554 
     88 H88       -70.9375   32.2076  -75.6809 H         1 UNK         0.0847 
     89 H89       -70.4704   30.9625  -76.8250 H         1 UNK         0.0847 
     90 H90       -69.7549   30.9951  -75.2125 H         1 UNK         0.0847 
     91 H91       -70.4577   28.6384  -75.4371 H         1 UNK         0.3141 
     92 H92       -70.8298   26.5209  -76.3389 H         1 UNK         0.0743 
     93 H93       -72.2634   25.7925  -73.7135 H         1 UNK         0.0784 
     94 H94       -70.9220   24.9012  -74.4261 H         1 UNK         0.0784 
     95 H95       -70.6694   26.5297  -73.8235 H         1 UNK         0.0784 
     96 H96       -73.6685   25.7005  -76.1135 H         1 UNK         0.3213 
     97 H97       -73.1575   23.2343  -78.6982 H         1 UNK         0.0855 
     98 H98       -74.2114   22.9644  -75.8331 H         1 UNK         0.0814 
     99 H99       -72.9528   21.9731  -76.5572 H         1 UNK         0.0814 
    100 H100      -74.5944   21.8928  -77.1791 H         1 UNK         0.0814 
    101 H101      -75.5521   24.2092  -77.5287 H         1 UNK         0.3105 
    102 H102      -76.1326   26.8503  -79.8762 H         1 UNK         0.0547 
    103 H103      -76.8376   24.7847  -81.0105 H         1 UNK         0.0837 
    104 H104      -77.3700   24.0734  -79.4979 H         1 UNK         0.0837 
    105 H105      -78.1982   25.4856  -80.1508 H         1 UNK         0.0837 
    106 H106      -77.2957   25.5881  -77.4523 H         1 UNK         0.3020 
    107 H107      -76.1354   27.9792  -75.3303 H         1 UNK         0.1245 
    108 H108      -78.7655   28.4259  -74.8379 H         1 UNK         0.0781 
    109 H109      -78.8378   28.6384  -76.5540 H         1 UNK         0.0781 
    110 H110      -78.9147   30.9188  -73.6398 H         1 UNK         0.0836 
    111 H111      -77.3386   31.6536  -73.4662 H         1 UNK         0.0836 
    112 H112      -78.3350   26.1607  -75.0407 H         1 UNK         0.3022 
    113 H113      -76.1743   23.3570  -74.3312 H         1 UNK         0.0747 
    114 H114      -77.6673   23.3672  -72.3276 H         1 UNK         0.0793 
    115 H115      -76.4482   24.6299  -72.2226 H         1 UNK         0.0793 
    116 H116      -78.0971   25.0441  -72.6661 H         1 UNK         0.0793 
    117 H117      -78.9899   23.4240  -74.4472 H         1 UNK         0.3047 
    118 H118      -79.3707   22.6602  -77.9135 H         1 UNK         0.0822 
    119 H119      -80.4635   20.6517  -76.9393 H         1 UNK         0.0807 
    120 H120      -79.6268   20.9142  -75.4099 H         1 UNK         0.0807 
    121 H121      -78.7132   20.5323  -76.8585 H         1 UNK         0.0807 
    122 H122      -81.0591   23.8605  -77.2379 H         1 UNK         0.2946 
    123 H123      -82.4726   25.0072  -76.1597 H         1 UNK         0.1144 
    124 H124      -84.5833   24.3997  -75.0249 H         1 UNK         0.0793 
    125 H125      -83.7408   23.2296  -74.0078 H         1 UNK         0.0793 
    126 H126      -83.8730   22.9630  -75.7403 H         1 UNK         0.0793 
    127 H127      -83.0894   25.7190  -73.6292 H         1 UNK         0.2896 
@<TRIPOS>BOND
     1    1    2 1    
     2    1   67 1    
     3    1   68 1    
     4    1   69 1    
     5    2    3 2    
     6    2    4 am   BACKBONE|DICT|INTERRES
     7    4    5 1    
     8    4   70 1    
     9    5    6 1    
    10    5   65 1    
    11    5   71 1    
    12    6    7 1    
    13    6   72 1    
    14    6   73 1    
    15    7    8 1    
    16    8    9 1    
    17    8   74 1    
    18    8   75 1    
    19    9   10 ar   
    20    9   14 ar   
    21   10   11 ar   
    22   10   76 1    
    23   11   12 ar   
    24   11   48 1    
    25   12   13 ar   
    26   12   77 1    
    27   13   14 ar   
    28   13   15 1    
    29   14   78 1    
    30   15   16 1    
    31   15   79 1    
    32   15   80 1    
    33   16   17 1    
    34   17   18 1    
    35   17   81 1    
    36   17   82 1    
    37   18   19 1    
    38   18   22 1    
    39   18   83 1    
    40   19   20 am   BACKBONE|DICT|INTERRES
    41   19   21 2    
    42   20   84 1    
    43   20   85 1    
    44   22   23 am   BACKBONE|DICT|INTERRES
    45   22   86 1    
    46   23   24 2    
    47   23   25 1    
    48   25   26 1    
    49   25   27 1    
    50   25   87 1    
    51   26   88 1    
    52   26   89 1    
    53   26   90 1    
    54   27   28 am   BACKBONE|DICT|INTERRES
    55   27   91 1    
    56   28   29 2    
    57   28   30 1    
    58   30   31 1    
    59   30   32 1    
    60   30   92 1    
    61   31   93 1    
    62   31   94 1    
    63   31   95 1    
    64   32   33 am   BACKBONE|DICT|INTERRES
    65   32   96 1    
    66   33   34 2    
    67   33   35 1    
    68   35   36 1    
    69   35   37 1    
    70   35   97 1    
    71   36   98 1    
    72   36   99 1    
    73   36  100 1    
    74   37   38 am   BACKBONE|DICT|INTERRES
    75   37  101 1    
    76   38   39 2    
    77   38   40 1    
    78   40   41 1    
    79   40   42 1    
    80   40  102 1    
    81   41  103 1    
    82   41  104 1    
    83   41  105 1    
    84   42   43 am   BACKBONE|DICT|INTERRES
    85   42  106 1    
    86   43   44 2    
    87   43   45 1    
    88   45   46 1    
    89   45   49 1    
    90   45  107 1    
    91   46   47 1    
    92   46  108 1    
    93   46  109 1    
    94   47   48 1    
    95   48  110 1    
    96   48  111 1    
    97   49   50 am   BACKBONE|DICT|INTERRES
    98   49  112 1    
    99   50   51 2    
   100   50   52 1    
   101   52   53 1    
   102   52   54 1    
   103   52  113 1    
   104   53  114 1    
   105   53  115 1    
   106   53  116 1    
   107   54   55 am   BACKBONE|DICT|INTERRES
   108   54  117 1    
   109   55   56 2    
   110   55   57 1    
   111   57   58 1    
   112   57   59 1    
   113   57  118 1    
   114   58  119 1    
   115   58  120 1    
   116   58  121 1    
   117   59   60 am   BACKBONE|DICT|INTERRES
   118   59  122 1    
   119   60   61 2    
   120   60   62 1    
   121   62   63 1    
   122   62   64 1    
   123   62  123 1    
   124   63  124 1    
   125   63  125 1    
   126   63  126 1    
   127   64   65 am   BACKBONE|DICT|INTERRES
   128   64  127 1    
   129   65   66 2    
@<TRIPOS>SUBSTRUCTURE
     1 UNK         1 GROUP             0       ****    0 ROOT    
