@<TRIPOS>MOLECULE
3R135
127   129    1
SMALL
USER_CHARGES


@<TRIPOS>ATOM
      1 CA        -83.6836   26.6391  -70.4245 C.3       0 UNK        -0.1998 
      2 C         -83.4471   27.1837  -71.8251 C.2       0 UNK         0.4909 
      3 O         -84.3487   27.1337  -72.6623 O.2       0 UNK        -0.5240 
      4 N         -82.2408   27.7058  -72.0832 N.am      1 UNK        -0.4739 
      5 CA        -81.8255   28.2605  -73.3797 C.3       1 UNK         0.0864 
      6 C6        -80.5518   29.1300  -73.2517 C.3       11 UNK        -0.0881 
      7 S7        -80.8320   30.6239  -72.2348 S.3       11 UNK        -0.2682 
      8 C8        -80.2194   30.1376  -70.5858 C.3       11 UNK         0.0289 
      9 C9        -78.7323   29.8187  -70.5961 C.ar      11 UNK        -0.0687 
     10 C10       -78.2911   28.4983  -70.4800 C.ar      11 UNK        -0.0823 
     11 C11       -76.9281   28.1937  -70.5513 C.ar      11 UNK        -0.0830 
     12 C12       -75.9995   29.2304  -70.7085 C.ar      11 UNK        -0.1021 
     13 C13       -76.4291   30.5595  -70.7918 C.ar      11 UNK        -0.0753 
     14 C14       -77.7960   30.8454  -70.7330 C.ar      11 UNK        -0.0933 
     15 C15       -75.4306   31.6995  -70.9275 C.3       11 UNK         0.0166 
     16 S16       -75.5244   32.4821  -72.5706 S.3       11 UNK        -0.2615 
     17 C17       -74.0869   31.7612  -73.4318 C.3       11 UNK        -0.0865 
     18 CA        -74.3834   30.4435  -74.1993 C.3       10 UNK         0.0862 
     19 C         -75.3780   30.6321  -75.3729 C.2       10 UNK         0.5551 
     20 N         -74.9364   31.1561  -76.5117 N.am      10 UNK        -0.7319 
     21 O         -76.5471   30.2734  -75.2657 O.2       10 UNK        -0.5018 
     22 N         -73.1435   29.8099  -74.6654 N.am      10 UNK        -0.4509 
     23 C         -72.2962   29.1329  -73.8870 C.2       10 UNK         0.4899 
     24 O         -72.4696   28.9482  -72.6805 O.2       10 UNK        -0.4839 
     25 CA        -71.0575   28.5448  -74.5743 C.3       9 UNK         0.0222 
     26 CB        -69.8228   28.6899  -73.6529 C.3       9 UNK        -0.1966 
     27 N         -71.3603   27.1492  -74.8965 N.am      9 UNK        -0.4218 
     28 C         -70.5209   26.2071  -75.3459 C.2       9 UNK         0.5020 
     29 O         -69.3388   26.4042  -75.6312 O.2       9 UNK        -0.5274 
     30 CA        -71.0956   24.7872  -75.4800 C.3       8 UNK         0.0270 
     31 CB        -71.6103   24.2611  -74.1281 C.3       8 UNK        -0.1976 
     32 N         -72.1533   24.6940  -76.4875 N.am      8 UNK        -0.4313 
     33 C         -71.9497   24.7596  -77.8113 C.2       8 UNK         0.5041 
     34 O         -70.8417   24.9036  -78.3301 O.2       8 UNK        -0.5577 
     35 CA        -73.1839   24.6208  -78.7193 C.3       7 UNK         0.0284 
     36 CB        -73.5635   23.1413  -78.8946 C.3       7 UNK        -0.1958 
     37 N         -74.3411   25.3686  -78.2282 N.am      7 UNK        -0.4454 
     38 C         -74.4249   26.7056  -78.1925 C.2       7 UNK         0.5089 
     39 O         -73.5622   27.4618  -78.6398 O.2       7 UNK        -0.5125 
     40 CA        -75.6709   27.3028  -77.5137 C.3       6 UNK         0.0408 
     41 CB        -76.8506   27.3758  -78.4945 C.3       6 UNK        -0.1791 
     42 N         -76.0759   26.5818  -76.3031 N.am      6 UNK        -0.4762 
     43 C         -75.3003   26.4223  -75.2199 C.2       6 UNK         0.5007 
     44 O         -74.1548   26.8552  -75.1184 O.2       6 UNK        -0.5032 
     45 CA        -75.8797   25.5917  -74.0676 C.3       5 UNK         0.0783 
     46 C46       -76.8715   26.4452  -73.2465 C.3       11 UNK        -0.0857 
     47 S47       -77.3176   25.6563  -71.6673 S.3       11 UNK        -0.2512 
     48 C48       -76.4605   26.7428  -70.4733 C.3       11 UNK         0.0225 
     49 N         -76.4593   24.3428  -74.5702 N.am      5 UNK        -0.4615 
     50 C         -75.7453   23.3590  -75.1383 C.2       4 UNK         0.5053 
     51 O         -74.5194   23.3770  -75.2424 O.2       4 UNK        -0.5105 
     52 CA        -76.5301   22.1811  -75.7393 C.3       4 UNK         0.0263 
     53 CB        -76.9069   21.1684  -74.6465 C.3       4 UNK        -0.1981 
     54 N         -77.7365   22.6101  -76.4492 N.am      4 UNK        -0.4224 
     55 C         -77.7476   23.3999  -77.5339 C.2       3 UNK         0.4895 
     56 O         -76.7319   23.7861  -78.1098 O.2       3 UNK        -0.5091 
     57 CA        -79.1224   23.8833  -78.0299 C.3       3 UNK         0.0250 
     58 CB        -79.6740   22.9298  -79.1014 C.3       3 UNK        -0.1996 
     59 N         -80.1068   24.0363  -76.9523 N.am      3 UNK        -0.4254 
     60 C         -79.9781   24.8810  -75.9191 C.2       2 UNK         0.5004 
     61 O         -79.0231   25.6490  -75.7788 O.2       2 UNK        -0.5226 
     62 CA        -81.0497   24.7631  -74.8222 C.3       2 UNK         0.0269 
     63 CB        -80.7143   23.5896  -73.8851 C.3       2 UNK        -0.1926 
     64 N         -81.1956   25.9712  -74.0091 N.am      2 UNK        -0.4687 
     65 C         -81.6407   27.1584  -74.4456 C.2       1 UNK         0.5165 
     66 O         -81.9467   27.3887  -75.6167 O.2       1 UNK        -0.5079 
     67 H67       -82.8078   26.7568  -69.7866 H         1 UNK         0.0900 
     68 H68       -84.5169   27.1613  -69.9551 H         1 UNK         0.0900 
     69 H69       -83.9289   25.5784  -70.4714 H         1 UNK         0.0900 
     70 H70       -81.5459   27.7298  -71.3529 H         1 UNK         0.2959 
     71 H71       -82.6339   28.9022  -73.7386 H         1 UNK         0.1079 
     72 H72       -79.7170   28.5475  -72.8609 H         1 UNK         0.0837 
     73 H73       -80.2311   29.4755  -74.2368 H         1 UNK         0.0837 
     74 H74       -80.7983   29.2923  -70.2131 H         1 UNK         0.0685 
     75 H75       -80.4032   30.9576  -69.8901 H         1 UNK         0.0685 
     76 H76       -79.0095   27.6987  -70.3642 H         1 UNK         0.1434 
     77 H77       -74.9427   29.0055  -70.7663 H         1 UNK         0.1329 
     78 H78       -78.1333   31.8699  -70.8144 H         1 UNK         0.1335 
     79 H79       -75.6544   32.4540  -70.1720 H         1 UNK         0.0680 
     80 H80       -74.4161   31.3574  -70.7184 H         1 UNK         0.0680 
     81 H81       -73.6942   32.5127  -74.1189 H         1 UNK         0.1032 
     82 H82       -73.2932   31.6036  -72.7009 H         1 UNK         0.1032 
     83 H83       -74.8591   29.7486  -73.5035 H         1 UNK         0.0461 
     84 H84       -75.5849   31.2690  -77.2747 H         1 UNK         0.3453 
     85 H85       -73.9961   31.5045  -76.6048 H         1 UNK         0.3453 
     86 H86       -72.9831   29.8426  -75.6623 H         1 UNK         0.2984 
     87 H87       -70.8717   29.0845  -75.5046 H         1 UNK         0.0554 
     88 H88       -69.7319   29.7108  -73.2791 H         1 UNK         0.0847 
     89 H89       -68.8941   28.4687  -74.1775 H         1 UNK         0.0847 
     90 H90       -69.8852   28.0308  -72.7862 H         1 UNK         0.0847 
     91 H91       -72.3445   26.9016  -74.7893 H         1 UNK         0.3141 
     92 H92       -70.2786   24.1334  -75.7933 H         1 UNK         0.0743 
     93 H93       -70.8423   24.3431  -73.3578 H         1 UNK         0.0784 
     94 H94       -72.4844   24.8120  -73.7795 H         1 UNK         0.0784 
     95 H95       -71.8885   23.2092  -74.1961 H         1 UNK         0.0784 
     96 H96       -73.0936   24.5214  -76.1452 H         1 UNK         0.3213 
     97 H97       -72.9196   25.0209  -79.7007 H         1 UNK         0.0855 
     98 H98       -73.8723   22.6887  -77.9515 H         1 UNK         0.0814 
     99 H99       -72.7201   22.5635  -79.2748 H         1 UNK         0.0814 
    100 H100      -74.3832   23.0244  -79.6039 H         1 UNK         0.0814 
    101 H101      -75.1424   24.8242  -77.9171 H         1 UNK         0.3105 
    102 H102      -75.4211   28.3210  -77.2135 H         1 UNK         0.0547 
    103 H103      -77.7270   27.8283  -78.0298 H         1 UNK         0.0837 
    104 H104      -77.1341   26.3894  -78.8604 H         1 UNK         0.0837 
    105 H105      -76.5943   27.9825  -79.3639 H         1 UNK         0.0837 
    106 H106      -77.0141   26.1949  -76.2846 H         1 UNK         0.3020 
    107 H107      -75.0420   25.3283  -73.4175 H         1 UNK         0.1245 
    108 H108      -77.7884   26.6361  -73.8037 H         1 UNK         0.0781 
    109 H109      -76.4455   27.4305  -73.0490 H         1 UNK         0.0781 
    110 H110      -75.3852   26.6719  -70.6452 H         1 UNK         0.0836 
    111 H111      -76.6371   26.3684  -69.4643 H         1 UNK         0.0836 
    112 H112      -77.4673   24.2890  -74.5714 H         1 UNK         0.3022 
    113 H113      -75.8787   21.6826  -76.4603 H         1 UNK         0.0747 
    114 H114      -77.3914   20.2887  -75.0706 H         1 UNK         0.0793 
    115 H115      -76.0193   20.8222  -74.1148 H         1 UNK         0.0793 
    116 H116      -77.5818   21.6007  -73.9065 H         1 UNK         0.0793 
    117 H117      -78.6220   22.3285  -76.0564 H         1 UNK         0.3047 
    118 H118      -78.9795   24.8645  -78.4864 H         1 UNK         0.0822 
    119 H119      -80.6051   23.3055  -79.5262 H         1 UNK         0.0807 
    120 H120      -79.8644   21.9338  -78.6995 H         1 UNK         0.0807 
    121 H121      -78.9667   22.8190  -79.9248 H         1 UNK         0.0807 
    122 H122      -80.9152   23.4317  -76.9922 H         1 UNK         0.2946 
    123 H123      -82.0116   24.5718  -75.3035 H         1 UNK         0.1144 
    124 H124      -79.7647   23.7435  -73.3699 H         1 UNK         0.0793 
    125 H125      -80.6404   22.6499  -74.4338 H         1 UNK         0.0793 
    126 H126      -81.4866   23.4546  -73.1274 H         1 UNK         0.0793 
    127 H127      -80.9622   25.8863  -73.0313 H         1 UNK         0.2896 
@<TRIPOS>BOND
     1    1    2 1    
     2    1   67 1    
     3    1   68 1    
     4    1   69 1    
     5    2    3 2    
     6    2    4 am   BACKBONE|DICT|INTERRES
     7    4    5 1    
     8    4   70 1    
     9    5    6 1    
    10    5   65 1    
    11    5   71 1    
    12    6    7 1    
    13    6   72 1    
    14    6   73 1    
    15    7    8 1    
    16    8    9 1    
    17    8   74 1    
    18    8   75 1    
    19    9   10 ar   
    20    9   14 ar   
    21   10   11 ar   
    22   10   76 1    
    23   11   12 ar   
    24   11   48 1    
    25   12   13 ar   
    26   12   77 1    
    27   13   14 ar   
    28   13   15 1    
    29   14   78 1    
    30   15   16 1    
    31   15   79 1    
    32   15   80 1    
    33   16   17 1    
    34   17   18 1    
    35   17   81 1    
    36   17   82 1    
    37   18   19 1    
    38   18   22 1    
    39   18   83 1    
    40   19   20 am   BACKBONE|DICT|INTERRES
    41   19   21 2    
    42   20   84 1    
    43   20   85 1    
    44   22   23 am   BACKBONE|DICT|INTERRES
    45   22   86 1    
    46   23   24 2    
    47   23   25 1    
    48   25   26 1    
    49   25   27 1    
    50   25   87 1    
    51   26   88 1    
    52   26   89 1    
    53   26   90 1    
    54   27   28 am   BACKBONE|DICT|INTERRES
    55   27   91 1    
    56   28   29 2    
    57   28   30 1    
    58   30   31 1    
    59   30   32 1    
    60   30   92 1    
    61   31   93 1    
    62   31   94 1    
    63   31   95 1    
    64   32   33 am   BACKBONE|DICT|INTERRES
    65   32   96 1    
    66   33   34 2    
    67   33   35 1    
    68   35   36 1    
    69   35   37 1    
    70   35   97 1    
    71   36   98 1    
    72   36   99 1    
    73   36  100 1    
    74   37   38 am   BACKBONE|DICT|INTERRES
    75   37  101 1    
    76   38   39 2    
    77   38   40 1    
    78   40   41 1    
    79   40   42 1    
    80   40  102 1    
    81   41  103 1    
    82   41  104 1    
    83   41  105 1    
    84   42   43 am   BACKBONE|DICT|INTERRES
    85   42  106 1    
    86   43   44 2    
    87   43   45 1    
    88   45   46 1    
    89   45   49 1    
    90   45  107 1    
    91   46   47 1    
    92   46  108 1    
    93   46  109 1    
    94   47   48 1    
    95   48  110 1    
    96   48  111 1    
    97   49   50 am   BACKBONE|DICT|INTERRES
    98   49  112 1    
    99   50   51 2    
   100   50   52 1    
   101   52   53 1    
   102   52   54 1    
   103   52  113 1    
   104   53  114 1    
   105   53  115 1    
   106   53  116 1    
   107   54   55 am   BACKBONE|DICT|INTERRES
   108   54  117 1    
   109   55   56 2    
   110   55   57 1    
   111   57   58 1    
   112   57   59 1    
   113   57  118 1    
   114   58  119 1    
   115   58  120 1    
   116   58  121 1    
   117   59   60 am   BACKBONE|DICT|INTERRES
   118   59  122 1    
   119   60   61 2    
   120   60   62 1    
   121   62   63 1    
   122   62   64 1    
   123   62  123 1    
   124   63  124 1    
   125   63  125 1    
   126   63  126 1    
   127   64   65 am   BACKBONE|DICT|INTERRES
   128   64  127 1    
   129   65   66 2    
@<TRIPOS>SUBSTRUCTURE
     1 UNK         1 GROUP             0       ****    0 ROOT    
