@<TRIPOS>MOLECULE
3R135
127   129    1
SMALL
USER_CHARGES


@<TRIPOS>ATOM
      1 CA        -83.5345   22.8761  -71.3360 C.3       0 UNK        -0.1998 
      2 C         -83.4503   24.1400  -72.1776 C.2       0 UNK         0.4909 
      3 O         -84.3379   24.3971  -72.9924 O.2       0 UNK        -0.5240 
      4 N         -82.3884   24.9337  -71.9927 N.am      1 UNK        -0.4739 
      5 CA        -82.1025   26.1694  -72.7296 C.3       1 UNK         0.0864 
      6 C6        -81.2411   27.1600  -71.8962 C.3       11 UNK        -0.0881 
      7 S7        -79.7839   26.4306  -71.0590 S.3       11 UNK        -0.2682 
      8 C8        -79.1323   27.8560  -70.1245 C.3       11 UNK         0.0289 
      9 C9        -78.1665   28.6879  -70.9580 C.ar      11 UNK        -0.0687 
     10 C10       -78.6573   29.6003  -71.8944 C.ar      11 UNK        -0.0823 
     11 C11       -77.7841   30.3200  -72.7119 C.ar      11 UNK        -0.0830 
     12 C12       -76.4053   30.1785  -72.5401 C.ar      11 UNK        -0.1021 
     13 C13       -75.8974   29.2886  -71.5893 C.ar      11 UNK        -0.0753 
     14 C14       -76.7829   28.5392  -70.8058 C.ar      11 UNK        -0.0933 
     15 C15       -74.3939   29.1021  -71.4557 C.3       11 UNK         0.0166 
     16 S16       -73.5621   30.6384  -70.9442 S.3       11 UNK        -0.2615 
     17 C17       -71.8141   30.1149  -70.9615 C.3       11 UNK        -0.0865 
     18 CA        -71.0500   30.5643  -72.2364 C.3       10 UNK         0.0862 
     19 C         -69.5255   30.2825  -72.0751 C.2       10 UNK         0.5551 
     20 N         -68.9384   29.3299  -72.7913 N.am      10 UNK        -0.7319 
     21 O         -68.8642   30.9460  -71.2804 O.2       10 UNK        -0.5018 
     22 N         -71.6462   29.9959  -73.4557 N.am      10 UNK        -0.4509 
     23 C         -71.3660   30.3752  -74.7095 C.2       10 UNK         0.4899 
     24 O         -70.6848   31.3644  -74.9839 O.2       10 UNK        -0.4839 
     25 CA        -71.9322   29.4954  -75.8479 C.3       9 UNK         0.0222 
     26 CB        -71.0146   29.4800  -77.0880 C.3       9 UNK        -0.1966 
     27 N         -72.2674   28.1182  -75.4480 N.am      9 UNK        -0.4218 
     28 C         -71.4420   27.2120  -74.8960 C.2       9 UNK         0.5020 
     29 O         -70.2578   27.4306  -74.6353 O.2       9 UNK        -0.5274 
     30 CA        -72.0427   25.8508  -74.5198 C.3       8 UNK         0.0270 
     31 CB        -72.7460   25.9314  -73.1549 C.3       8 UNK        -0.1976 
     32 N         -72.9721   25.3417  -75.5292 N.am      8 UNK        -0.4313 
     33 C         -72.5848   24.7385  -76.6618 C.2       8 UNK         0.5041 
     34 O         -71.4067   24.5592  -76.9747 O.2       8 UNK        -0.5577 
     35 CA        -73.6926   24.2363  -77.6024 C.3       7 UNK         0.0284 
     36 CB        -74.3389   22.9532  -77.0559 C.3       7 UNK        -0.1958 
     37 N         -74.7254   25.2407  -77.8532 N.am      7 UNK        -0.4454 
     38 C         -74.5324   26.3717  -78.5455 C.2       7 UNK         0.5089 
     39 O         -73.4624   26.6897  -79.0652 O.2       7 UNK        -0.5125 
     40 CA        -75.7422   27.3090  -78.6856 C.3       6 UNK         0.0408 
     41 CB        -76.6076   26.8992  -79.8877 C.3       6 UNK        -0.1791 
     42 N         -76.5708   27.3490  -77.4803 N.am      6 UNK        -0.4762 
     43 C         -76.1923   27.8983  -76.3180 C.2       6 UNK         0.5007 
     44 O         -75.0890   28.4110  -76.1266 O.2       6 UNK        -0.5032 
     45 CA        -77.2067   27.8152  -75.1593 C.3       5 UNK         0.0783 
     46 C46       -78.4096   28.7783  -75.3656 C.3       11 UNK        -0.0857 
     47 S47       -77.9301   30.5444  -75.4756 S.3       11 UNK        -0.2512 
     48 C48       -78.3366   31.2001  -73.8217 C.3       11 UNK         0.0225 
     49 N         -77.6467   26.4370  -74.9140 N.am      5 UNK        -0.4615 
     50 C         -76.8370   25.3986  -74.6611 C.2       4 UNK         0.5053 
     51 O         -75.6137   25.4880  -74.5705 O.2       4 UNK        -0.5105 
     52 CA        -77.4792   24.0061  -74.5417 C.3       4 UNK         0.0263 
     53 CB        -78.0429   23.7831  -73.1306 C.3       4 UNK        -0.1981 
     54 N         -78.5150   23.7014  -75.5347 N.am      4 UNK        -0.4224 
     55 C         -78.4373   23.8674  -76.8647 C.2       3 UNK         0.4895 
     56 O         -77.4794   24.3895  -77.4353 O.2       3 UNK        -0.5091 
     57 CA        -79.6132   23.3445  -77.7170 C.3       3 UNK         0.0250 
     58 CB        -79.1001   22.3512  -78.7740 C.3       3 UNK        -0.1996 
     59 N         -80.6572   22.6788  -76.9249 N.am      3 UNK        -0.4254 
     60 C         -81.6704   23.2291  -76.2391 C.2       2 UNK         0.5004 
     61 O         -82.4257   22.5349  -75.5584 O.2       2 UNK        -0.5226 
     62 CA        -81.9291   24.7457  -76.3077 C.3       2 UNK         0.0269 
     63 CB        -83.0554   25.0491  -77.3087 C.3       2 UNK        -0.1926 
     64 N         -82.3298   25.2164  -74.9826 N.am      2 UNK        -0.4687 
     65 C         -81.5293   25.8698  -74.1340 C.2       1 UNK         0.5165 
     66 O         -80.3839   26.2116  -74.4280 O.2       1 UNK        -0.5079 
     67 H67       -84.4529   22.8758  -70.7497 H         1 UNK         0.0900 
     68 H68       -83.5405   21.9979  -71.9811 H         1 UNK         0.0900 
     69 H69       -82.6930   22.7872  -70.6490 H         1 UNK         0.0900 
     70 H70       -81.6775   24.6719  -71.3233 H         1 UNK         0.2959 
     71 H71       -83.0530   26.6764  -72.9125 H         1 UNK         0.1079 
     72 H72       -80.9225   27.9895  -72.5259 H         1 UNK         0.0837 
     73 H73       -81.8700   27.6044  -71.1232 H         1 UNK         0.0837 
     74 H74       -79.9543   28.4778  -69.7668 H         1 UNK         0.0685 
     75 H75       -78.6269   27.4822  -69.2329 H         1 UNK         0.0685 
     76 H76       -79.7229   29.7280  -72.0122 H         1 UNK         0.1434 
     77 H77       -75.7259   30.7331  -73.1735 H         1 UNK         0.1329 
     78 H78       -76.3969   27.8314  -70.0851 H         1 UNK         0.1335 
     79 H79       -74.1620   28.3109  -70.7408 H         1 UNK         0.0680 
     80 H80       -73.9997   28.7823  -72.4197 H         1 UNK         0.0680 
     81 H81       -71.3483   30.5458  -70.0726 H         1 UNK         0.1032 
     82 H82       -71.7481   29.0328  -70.8330 H         1 UNK         0.1032 
     83 H83       -71.1476   31.6490  -72.3130 H         1 UNK         0.0461 
     84 H84       -67.9516   29.1655  -72.6738 H         1 UNK         0.3453 
     85 H85       -69.4670   28.7633  -73.4480 H         1 UNK         0.3453 
     86 H86       -72.2129   29.1731  -73.3305 H         1 UNK         0.2984 
     87 H87       -72.8729   29.9618  -76.1424 H         1 UNK         0.0554 
     88 H88       -70.8718   30.4853  -77.4860 H         1 UNK         0.0847 
     89 H89       -71.4423   28.8749  -77.8879 H         1 UNK         0.0847 
     90 H90       -70.0279   29.0785  -76.8547 H         1 UNK         0.0847 
     91 H91       -73.2385   27.8638  -75.6092 H         1 UNK         0.3141 
     92 H92       -71.2159   25.1437  -74.4222 H         1 UNK         0.0743 
     93 H93       -73.6137   26.5899  -73.1850 H         1 UNK         0.0784 
     94 H94       -73.0896   24.9488  -72.8310 H         1 UNK         0.0784 
     95 H95       -72.0710   26.3089  -72.3854 H         1 UNK         0.0784 
     96 H96       -73.9674   25.4253  -75.3203 H         1 UNK         0.3213 
     97 H97       -73.2281   23.9948  -78.5611 H         1 UNK         0.0855 
     98 H98       -74.8128   23.1207  -76.0895 H         1 UNK         0.0814 
     99 H99       -73.5929   22.1689  -76.9211 H         1 UNK         0.0814 
    100 H100      -75.0970   22.5678  -77.7381 H         1 UNK         0.0814 
    101 H101      -75.6631   25.0401  -77.5135 H         1 UNK         0.3105 
    102 H102      -75.3630   28.3171  -78.8672 H         1 UNK         0.0547 
    103 H103      -76.0172   26.8837  -80.8049 H         1 UNK         0.0837 
    104 H104      -77.0347   25.9037  -79.7590 H         1 UNK         0.0837 
    105 H105      -77.4280   27.5996  -80.0440 H         1 UNK         0.0837 
    106 H106      -77.4562   26.8635  -77.5190 H         1 UNK         0.3020 
    107 H107      -76.6750   28.1199  -74.2579 H         1 UNK         0.1245 
    108 H108      -79.1282   28.6566  -74.5545 H         1 UNK         0.0781 
    109 H109      -78.9546   28.5168  -76.2742 H         1 UNK         0.0781 
    110 H110      -79.4200   31.2999  -73.7389 H         1 UNK         0.0836 
    111 H111      -77.9270   32.2065  -73.7252 H         1 UNK         0.0836 
    112 H112      -78.6536   26.2819  -74.8870 H         1 UNK         0.3022 
    113 H113      -76.6818   23.2774  -74.6930 H         1 UNK         0.0747 
    114 H114      -78.3082   22.7383  -72.9689 H         1 UNK         0.0793 
    115 H115      -77.3131   24.0535  -72.3659 H         1 UNK         0.0793 
    116 H116      -78.9347   24.3842  -72.9577 H         1 UNK         0.0793 
    117 H117      -79.3449   23.2548  -75.1748 H         1 UNK         0.3047 
    118 H118      -80.0382   24.1921  -78.2563 H         1 UNK         0.0822 
    119 H119      -79.9099   21.9950  -79.4111 H         1 UNK         0.0807 
    120 H120      -78.6249   21.4823  -78.3167 H         1 UNK         0.0807 
    121 H121      -78.3616   22.8182  -79.4277 H         1 UNK         0.0807 
    122 H122      -80.5587   21.6755  -76.8601 H         1 UNK         0.2946 
    123 H123      -81.0368   25.2836  -76.6264 H         1 UNK         0.1144 
    124 H124      -83.2615   26.1183  -77.3602 H         1 UNK         0.0793 
    125 H125      -83.9835   24.5423  -77.0403 H         1 UNK         0.0793 
    126 H126      -82.7831   24.7225  -78.3133 H         1 UNK         0.0793 
    127 H127      -83.2171   24.8732  -74.6265 H         1 UNK         0.2896 
@<TRIPOS>BOND
     1    1    2 1    
     2    1   67 1    
     3    1   68 1    
     4    1   69 1    
     5    2    3 2    
     6    2    4 am   BACKBONE|DICT|INTERRES
     7    4    5 1    
     8    4   70 1    
     9    5    6 1    
    10    5   65 1    
    11    5   71 1    
    12    6    7 1    
    13    6   72 1    
    14    6   73 1    
    15    7    8 1    
    16    8    9 1    
    17    8   74 1    
    18    8   75 1    
    19    9   10 ar   
    20    9   14 ar   
    21   10   11 ar   
    22   10   76 1    
    23   11   12 ar   
    24   11   48 1    
    25   12   13 ar   
    26   12   77 1    
    27   13   14 ar   
    28   13   15 1    
    29   14   78 1    
    30   15   16 1    
    31   15   79 1    
    32   15   80 1    
    33   16   17 1    
    34   17   18 1    
    35   17   81 1    
    36   17   82 1    
    37   18   19 1    
    38   18   22 1    
    39   18   83 1    
    40   19   20 am   BACKBONE|DICT|INTERRES
    41   19   21 2    
    42   20   84 1    
    43   20   85 1    
    44   22   23 am   BACKBONE|DICT|INTERRES
    45   22   86 1    
    46   23   24 2    
    47   23   25 1    
    48   25   26 1    
    49   25   27 1    
    50   25   87 1    
    51   26   88 1    
    52   26   89 1    
    53   26   90 1    
    54   27   28 am   BACKBONE|DICT|INTERRES
    55   27   91 1    
    56   28   29 2    
    57   28   30 1    
    58   30   31 1    
    59   30   32 1    
    60   30   92 1    
    61   31   93 1    
    62   31   94 1    
    63   31   95 1    
    64   32   33 am   BACKBONE|DICT|INTERRES
    65   32   96 1    
    66   33   34 2    
    67   33   35 1    
    68   35   36 1    
    69   35   37 1    
    70   35   97 1    
    71   36   98 1    
    72   36   99 1    
    73   36  100 1    
    74   37   38 am   BACKBONE|DICT|INTERRES
    75   37  101 1    
    76   38   39 2    
    77   38   40 1    
    78   40   41 1    
    79   40   42 1    
    80   40  102 1    
    81   41  103 1    
    82   41  104 1    
    83   41  105 1    
    84   42   43 am   BACKBONE|DICT|INTERRES
    85   42  106 1    
    86   43   44 2    
    87   43   45 1    
    88   45   46 1    
    89   45   49 1    
    90   45  107 1    
    91   46   47 1    
    92   46  108 1    
    93   46  109 1    
    94   47   48 1    
    95   48  110 1    
    96   48  111 1    
    97   49   50 am   BACKBONE|DICT|INTERRES
    98   49  112 1    
    99   50   51 2    
   100   50   52 1    
   101   52   53 1    
   102   52   54 1    
   103   52  113 1    
   104   53  114 1    
   105   53  115 1    
   106   53  116 1    
   107   54   55 am   BACKBONE|DICT|INTERRES
   108   54  117 1    
   109   55   56 2    
   110   55   57 1    
   111   57   58 1    
   112   57   59 1    
   113   57  118 1    
   114   58  119 1    
   115   58  120 1    
   116   58  121 1    
   117   59   60 am   BACKBONE|DICT|INTERRES
   118   59  122 1    
   119   60   61 2    
   120   60   62 1    
   121   62   63 1    
   122   62   64 1    
   123   62  123 1    
   124   63  124 1    
   125   63  125 1    
   126   63  126 1    
   127   64   65 am   BACKBONE|DICT|INTERRES
   128   64  127 1    
   129   65   66 2    
@<TRIPOS>SUBSTRUCTURE
     1 UNK         1 GROUP             0       ****    0 ROOT    
