@<TRIPOS>MOLECULE
3R135
127   129    1
SMALL
USER_CHARGES


@<TRIPOS>ATOM
      1 CA        -83.7643   27.4801  -70.1208 C.3       0 UNK        -0.1998 
      2 C         -84.0924   27.1253  -71.5632 C.2       0 UNK         0.4909 
      3 O         -85.0640   26.4119  -71.8141 O.2       0 UNK        -0.5240 
      4 N         -83.2883   27.6205  -72.5132 N.am      1 UNK        -0.4739 
      5 CA        -83.4187   27.3563  -73.9525 C.3       1 UNK         0.0864 
      6 C6        -82.6069   28.3737  -74.7999 C.3       11 UNK        -0.0881 
      7 S7        -80.8062   28.3633  -74.4725 S.3       11 UNK        -0.2682 
      8 C8        -80.6447   29.7415  -73.2904 C.3       11 UNK         0.0289 
      9 C9        -79.3308   29.6573  -72.5288 C.ar      11 UNK        -0.0687 
     10 C10       -79.0970   28.5858  -71.6606 C.ar      11 UNK        -0.0823 
     11 C11       -77.8727   28.4651  -70.9995 C.ar      11 UNK        -0.0830 
     12 C12       -76.9066   29.4662  -71.1500 C.ar      11 UNK        -0.1021 
     13 C13       -77.1192   30.5308  -72.0298 C.ar      11 UNK        -0.0753 
     14 C14       -78.3366   30.6242  -72.7131 C.ar      11 UNK        -0.0933 
     15 C15       -76.0192   31.5554  -72.2755 C.3       11 UNK         0.0166 
     16 S16       -74.8246   30.9747  -73.5292 S.3       11 UNK        -0.2615 
     17 C17       -73.6986   29.9260  -72.5410 C.3       11 UNK        -0.0865 
     18 CA        -72.2222   29.9987  -73.0152 C.3       10 UNK         0.0862 
     19 C         -71.2641   29.3019  -72.0015 C.2       10 UNK         0.5551 
     20 N         -70.4188   28.3588  -72.4027 N.am      10 UNK        -0.7319 
     21 O         -71.2811   29.6340  -70.8187 O.2       10 UNK        -0.5018 
     22 N         -72.0698   29.5213  -74.3998 N.am      10 UNK        -0.4509 
     23 C         -71.1080   29.9249  -75.2386 C.2       10 UNK         0.4899 
     24 O         -70.2920   30.8071  -74.9645 O.2       10 UNK        -0.4839 
     25 CA        -71.0444   29.2202  -76.6089 C.3       9 UNK         0.0222 
     26 CB        -69.7323   29.5056  -77.3701 C.3       9 UNK        -0.1966 
     27 N         -71.2923   27.7739  -76.5444 N.am      9 UNK        -0.4218 
     28 C         -70.6151   26.8556  -75.8355 C.2       9 UNK         0.5020 
     29 O         -69.6774   27.1381  -75.0877 O.2       9 UNK        -0.5274 
     30 CA        -71.0492   25.3767  -75.9466 C.3       8 UNK         0.0270 
     31 CB        -71.3210   24.7786  -74.5546 C.3       8 UNK        -0.1976 
     32 N         -72.2299   25.1656  -76.7890 N.am      8 UNK        -0.4313 
     33 C         -72.2329   25.1106  -78.1280 C.2       8 UNK         0.5041 
     34 O         -71.2130   25.1361  -78.8170 O.2       8 UNK        -0.5577 
     35 CA        -73.6125   25.0876  -78.8154 C.3       7 UNK         0.0284 
     36 CB        -74.1348   23.6491  -78.9538 C.3       7 UNK        -0.1958 
     37 N         -74.6053   25.9111  -78.1151 N.am      7 UNK        -0.4454 
     38 C         -74.5061   27.2381  -77.9453 C.2       7 UNK         0.5089 
     39 O         -73.6170   27.9257  -78.4451 O.2       7 UNK        -0.5125 
     40 CA        -75.5144   27.8978  -76.9938 C.3       6 UNK         0.0408 
     41 CB        -76.8135   28.2680  -77.7262 C.3       6 UNK        -0.1791 
     42 N         -75.8125   27.0448  -75.8428 N.am      6 UNK        -0.4762 
     43 C         -74.9586   26.7949  -74.8385 C.2       6 UNK         0.5007 
     44 O         -73.8285   27.2753  -74.7665 O.2       6 UNK        -0.5032 
     45 CA        -75.4615   25.8517  -73.7256 C.3       5 UNK         0.0783 
     46 C46       -76.3135   26.6859  -72.7496 C.3       11 UNK        -0.0857 
     47 S47       -77.1309   25.7994  -71.3797 S.3       11 UNK        -0.2512 
     48 C48       -77.5351   27.1847  -70.2421 C.3       11 UNK         0.0225 
     49 N         -76.1854   24.7022  -74.2706 N.am      5 UNK        -0.4615 
     50 C         -75.6406   23.7694  -75.0636 C.2       4 UNK         0.5053 
     51 O         -74.4495   23.7456  -75.3712 O.2       4 UNK        -0.5105 
     52 CA        -76.5995   22.7259  -75.6621 C.3       4 UNK         0.0263 
     53 CB        -76.7698   21.5376  -74.7033 C.3       4 UNK        -0.1981 
     54 N         -77.9165   23.2807  -75.9900 N.am      4 UNK        -0.4224 
     55 C         -78.1479   24.2945  -76.8340 C.2       3 UNK         0.4895 
     56 O         -77.2599   24.8417  -77.4878 O.2       3 UNK        -0.5091 
     57 CA        -79.5859   24.8377  -76.9340 C.3       3 UNK         0.0250 
     58 CB        -80.3390   24.1894  -78.1109 C.3       3 UNK        -0.1996 
     59 N         -80.3702   24.7736  -75.6880 N.am      3 UNK        -0.4254 
     60 C         -80.8243   23.6954  -75.0289 C.2       2 UNK         0.5004 
     61 O         -80.5879   22.5369  -75.3722 O.2       2 UNK        -0.5226 
     62 CA        -81.6355   23.9327  -73.7414 C.3       2 UNK         0.0269 
     63 CB        -80.7926   23.5615  -72.5090 C.3       2 UNK        -0.1926 
     64 N         -82.1246   25.3039  -73.5755 N.am      2 UNK        -0.4687 
     65 C         -83.0723   25.8959  -74.3184 C.2       1 UNK         0.5165 
     66 O         -83.6581   25.3420  -75.2493 O.2       1 UNK        -0.5079 
     67 H67       -84.6033   28.0038  -69.6634 H         1 UNK         0.0900 
     68 H68       -83.5741   26.5740  -69.5461 H         1 UNK         0.0900 
     69 H69       -82.8848   28.1194  -70.0466 H         1 UNK         0.0900 
     70 H70       -82.5100   28.2051  -72.2486 H         1 UNK         0.2959 
     71 H71       -84.4723   27.4899  -74.2095 H         1 UNK         0.1079 
     72 H72       -82.9939   29.3808  -74.6358 H         1 UNK         0.0837 
     73 H73       -82.7583   28.1799  -75.8637 H         1 UNK         0.0837 
     74 H74       -81.4664   29.7290  -72.5745 H         1 UNK         0.0685 
     75 H75       -80.7235   30.6849  -73.8331 H         1 UNK         0.0685 
     76 H76       -79.8401   27.8078  -71.5543 H         1 UNK         0.1434 
     77 H77       -75.9549   29.3732  -70.6457 H         1 UNK         0.1329 
     78 H78       -78.5017   31.4405  -73.4030 H         1 UNK         0.1335 
     79 H79       -76.4585   32.4907  -72.6256 H         1 UNK         0.0680 
     80 H80       -75.5066   31.7968  -71.3433 H         1 UNK         0.0680 
     81 H81       -74.0485   28.8969  -72.5798 H         1 UNK         0.1032 
     82 H82       -73.7718   30.2318  -71.4960 H         1 UNK         0.1032 
     83 H83       -71.9390   31.0528  -72.9939 H         1 UNK         0.0461 
     84 H84       -69.8079   27.9305  -71.7261 H         1 UNK         0.3453 
     85 H85       -70.3527   28.0899  -73.3773 H         1 UNK         0.3453 
     86 H86       -72.6851   28.7589  -74.6747 H         1 UNK         0.2984 
     87 H87       -71.8612   29.6405  -77.1968 H         1 UNK         0.0554 
     88 H88       -69.5993   30.5753  -77.5364 H         1 UNK         0.0847 
     89 H89       -69.7293   29.0251  -78.3484 H         1 UNK         0.0847 
     90 H90       -68.8605   29.1509  -76.8191 H         1 UNK         0.0847 
     91 H91       -72.0701   27.4558  -77.1107 H         1 UNK         0.3141 
     92 H92       -70.2104   24.8334  -76.3863 H         1 UNK         0.0743 
     93 H93       -70.4341   24.8336  -73.9220 H         1 UNK         0.0784 
     94 H94       -72.1217   25.3073  -74.0376 H         1 UNK         0.0784 
     95 H95       -71.6037   23.7279  -74.6222 H         1 UNK         0.0784 
     96 H96       -73.1144   25.0601  -76.3029 H         1 UNK         0.3213 
     97 H97       -73.4892   25.5033  -79.8177 H         1 UNK         0.0855 
     98 H98       -74.2505   23.1646  -77.9847 H         1 UNK         0.0814 
     99 H99       -73.4447   23.0409  -79.5400 H         1 UNK         0.0814 
    100 H100      -75.1007   23.6233  -79.4589 H         1 UNK         0.0814 
    101 H101      -75.4132   25.4358  -77.7208 H         1 UNK         0.3105 
    102 H102      -75.0658   28.8211  -76.6198 H         1 UNK         0.0547 
    103 H103      -77.5183   28.7634  -77.0581 H         1 UNK         0.0837 
    104 H104      -77.3090   27.3949  -78.1505 H         1 UNK         0.0837 
    105 H105      -76.6104   28.9551  -78.5485 H         1 UNK         0.0837 
    106 H106      -76.7036   26.5704  -75.8504 H         1 UNK         0.3020 
    107 H107      -74.5885   25.4713  -73.1905 H         1 UNK         0.1245 
    108 H108      -77.0921   27.2268  -73.2929 H         1 UNK         0.0781 
    109 H109      -75.6680   27.4360  -72.2985 H         1 UNK         0.0781 
    110 H110      -78.3727   26.8961  -69.6056 H         1 UNK         0.0836 
    111 H111      -76.6879   27.3516  -69.5750 H         1 UNK         0.0836 
    112 H112      -77.1658   24.6375  -74.0416 H         1 UNK         0.3022 
    113 H113      -76.1551   22.3606  -76.5898 H         1 UNK         0.0747 
    114 H114      -77.3819   20.7533  -75.1492 H         1 UNK         0.0793 
    115 H115      -75.8041   21.0933  -74.4573 H         1 UNK         0.0793 
    116 H116      -77.2403   21.8378  -73.7660 H         1 UNK         0.0793 
    117 H117      -78.7289   22.8529  -75.5535 H         1 UNK         0.3047 
    118 H118      -79.4911   25.9016  -77.1585 H         1 UNK         0.0822 
    119 H119      -81.3321   24.6222  -78.2318 H         1 UNK         0.0807 
    120 H120      -80.4555   23.1133  -77.9800 H         1 UNK         0.0807 
    121 H121      -79.8016   24.3440  -79.0476 H         1 UNK         0.0807 
    122 H122      -80.5950   25.6721  -75.2820 H         1 UNK         0.2946 
    123 H123      -82.5014   23.2680  -73.7841 H         1 UNK         0.1144 
    124 H124      -79.9178   24.2056  -72.4076 H         1 UNK         0.0793 
    125 H125      -80.4340   22.5331  -72.5734 H         1 UNK         0.0793 
    126 H126      -81.3756   23.6400  -71.5911 H         1 UNK         0.0793 
    127 H127      -81.7083   25.8463  -72.8329 H         1 UNK         0.2896 
@<TRIPOS>BOND
     1    1    2 1    
     2    1   67 1    
     3    1   68 1    
     4    1   69 1    
     5    2    3 2    
     6    2    4 am   BACKBONE|DICT|INTERRES
     7    4    5 1    
     8    4   70 1    
     9    5    6 1    
    10    5   65 1    
    11    5   71 1    
    12    6    7 1    
    13    6   72 1    
    14    6   73 1    
    15    7    8 1    
    16    8    9 1    
    17    8   74 1    
    18    8   75 1    
    19    9   10 ar   
    20    9   14 ar   
    21   10   11 ar   
    22   10   76 1    
    23   11   12 ar   
    24   11   48 1    
    25   12   13 ar   
    26   12   77 1    
    27   13   14 ar   
    28   13   15 1    
    29   14   78 1    
    30   15   16 1    
    31   15   79 1    
    32   15   80 1    
    33   16   17 1    
    34   17   18 1    
    35   17   81 1    
    36   17   82 1    
    37   18   19 1    
    38   18   22 1    
    39   18   83 1    
    40   19   20 am   BACKBONE|DICT|INTERRES
    41   19   21 2    
    42   20   84 1    
    43   20   85 1    
    44   22   23 am   BACKBONE|DICT|INTERRES
    45   22   86 1    
    46   23   24 2    
    47   23   25 1    
    48   25   26 1    
    49   25   27 1    
    50   25   87 1    
    51   26   88 1    
    52   26   89 1    
    53   26   90 1    
    54   27   28 am   BACKBONE|DICT|INTERRES
    55   27   91 1    
    56   28   29 2    
    57   28   30 1    
    58   30   31 1    
    59   30   32 1    
    60   30   92 1    
    61   31   93 1    
    62   31   94 1    
    63   31   95 1    
    64   32   33 am   BACKBONE|DICT|INTERRES
    65   32   96 1    
    66   33   34 2    
    67   33   35 1    
    68   35   36 1    
    69   35   37 1    
    70   35   97 1    
    71   36   98 1    
    72   36   99 1    
    73   36  100 1    
    74   37   38 am   BACKBONE|DICT|INTERRES
    75   37  101 1    
    76   38   39 2    
    77   38   40 1    
    78   40   41 1    
    79   40   42 1    
    80   40  102 1    
    81   41  103 1    
    82   41  104 1    
    83   41  105 1    
    84   42   43 am   BACKBONE|DICT|INTERRES
    85   42  106 1    
    86   43   44 2    
    87   43   45 1    
    88   45   46 1    
    89   45   49 1    
    90   45  107 1    
    91   46   47 1    
    92   46  108 1    
    93   46  109 1    
    94   47   48 1    
    95   48  110 1    
    96   48  111 1    
    97   49   50 am   BACKBONE|DICT|INTERRES
    98   49  112 1    
    99   50   51 2    
   100   50   52 1    
   101   52   53 1    
   102   52   54 1    
   103   52  113 1    
   104   53  114 1    
   105   53  115 1    
   106   53  116 1    
   107   54   55 am   BACKBONE|DICT|INTERRES
   108   54  117 1    
   109   55   56 2    
   110   55   57 1    
   111   57   58 1    
   112   57   59 1    
   113   57  118 1    
   114   58  119 1    
   115   58  120 1    
   116   58  121 1    
   117   59   60 am   BACKBONE|DICT|INTERRES
   118   59  122 1    
   119   60   61 2    
   120   60   62 1    
   121   62   63 1    
   122   62   64 1    
   123   62  123 1    
   124   63  124 1    
   125   63  125 1    
   126   63  126 1    
   127   64   65 am   BACKBONE|DICT|INTERRES
   128   64  127 1    
   129   65   66 2    
@<TRIPOS>SUBSTRUCTURE
     1 UNK         1 GROUP             0       ****    0 ROOT    
