@<TRIPOS>MOLECULE
3R135
127   129    1
SMALL
USER_CHARGES


@<TRIPOS>ATOM
      1 CA        -84.7088   28.3996  -72.5768 C.3       0 UNK        -0.1998 
      2 C         -83.3028   28.0943  -73.0697 C.2       0 UNK         0.4909 
      3 O         -82.8165   28.7537  -73.9898 O.2       0 UNK        -0.5240 
      4 N         -82.6435   27.0925  -72.4745 N.am      1 UNK        -0.4739 
      5 CA        -81.2780   26.6607  -72.7999 C.3       1 UNK         0.0864 
      6 C6        -80.5781   25.9902  -71.5866 C.3       11 UNK        -0.0881 
      7 S7        -80.5652   27.0507  -70.0981 S.3       11 UNK        -0.2682 
      8 C8        -78.7837   27.1545  -69.6978 C.3       11 UNK         0.0289 
      9 C9        -77.9155   27.8720  -70.7329 C.ar      11 UNK        -0.0687 
     10 C10       -78.4305   28.8565  -71.5860 C.ar      11 UNK        -0.0823 
     11 C11       -77.6140   29.4792  -72.5341 C.ar      11 UNK        -0.0830 
     12 C12       -76.2563   29.1534  -72.5895 C.ar      11 UNK        -0.1021 
     13 C13       -75.7285   28.1642  -71.7569 C.ar      11 UNK        -0.0753 
     14 C14       -76.5604   27.5355  -70.8261 C.ar      11 UNK        -0.0933 
     15 C15       -74.2881   27.7039  -71.9352 C.3       11 UNK         0.0166 
     16 S16       -73.1204   28.4932  -70.7801 S.3       11 UNK        -0.2615 
     17 C17       -73.1235   30.2484  -71.2982 C.3       11 UNK        -0.0865 
     18 CA        -72.0581   30.6203  -72.3651 C.3       10 UNK         0.0862 
     19 C         -70.5977   30.5380  -71.8269 C.2       10 UNK         0.5551 
     20 N         -69.6820   29.8193  -72.4673 N.am      10 UNK        -0.7319 
     21 O         -70.2839   31.1584  -70.8138 O.2       10 UNK        -0.5018 
     22 N         -72.2895   29.9048  -73.6274 N.am      10 UNK        -0.4509 
     23 C         -71.9719   30.3606  -74.8445 C.2       10 UNK         0.4899 
     24 O         -71.5215   31.4877  -75.0564 O.2       10 UNK        -0.4839 
     25 CA        -72.1961   29.3842  -76.0175 C.3       9 UNK         0.0222 
     26 CB        -71.3933   29.7714  -77.2771 C.3       9 UNK        -0.1966 
     27 N         -71.9538   27.9769  -75.6703 N.am      9 UNK        -0.4218 
     28 C         -70.8277   27.4284  -75.1928 C.2       9 UNK         0.5020 
     29 O         -69.8195   28.0796  -74.9161 O.2       9 UNK        -0.5274 
     30 CA        -70.8022   25.9015  -74.9684 C.3       8 UNK         0.0270 
     31 CB        -71.1893   25.5638  -73.5141 C.3       8 UNK        -0.1976 
     32 N         -71.5739   25.0906  -75.9299 N.am      8 UNK        -0.4313 
     33 C         -72.8986   25.0792  -76.1302 C.2       8 UNK         0.5041 
     34 O         -73.6804   25.8110  -75.5227 O.2       8 UNK        -0.5577 
     35 CA        -73.4398   24.0855  -77.1730 C.3       7 UNK         0.0284 
     36 CB        -73.7180   22.7233  -76.5179 C.3       7 UNK        -0.1958 
     37 N         -74.6807   24.5906  -77.7615 N.am      7 UNK        -0.4454 
     38 C         -74.7425   25.5721  -78.6714 C.2       7 UNK         0.5089 
     39 O         -73.7618   26.0177  -79.2692 O.2       7 UNK        -0.5125 
     40 CA        -76.1305   26.1900  -78.9231 C.3       6 UNK         0.0408 
     41 CB        -76.9716   25.3021  -79.8533 C.3       6 UNK        -0.1791 
     42 N         -76.8587   26.4351  -77.6743 N.am      6 UNK        -0.4762 
     43 C         -76.4710   27.3043  -76.7257 C.2       6 UNK         0.5007 
     44 O         -75.5247   28.0801  -76.8657 O.2       6 UNK        -0.5032 
     45 CA        -77.2485   27.2959  -75.3945 C.3       5 UNK         0.0783 
     46 C46       -78.4214   28.3121  -75.3944 C.3       11 UNK        -0.0857 
     47 S47       -77.8590   30.0476  -75.2642 S.3       11 UNK        -0.2512 
     48 C48       -78.2137   30.4727  -73.5221 C.3       11 UNK         0.0225 
     49 N         -77.6979   25.9374  -75.0734 N.am      5 UNK        -0.4615 
     50 C         -77.0388   25.0844  -74.2730 C.2       4 UNK         0.5053 
     51 O         -76.0912   25.4088  -73.5623 O.2       4 UNK        -0.5105 
     52 CA        -77.4836   23.6086  -74.2530 C.3       4 UNK         0.0263 
     53 CB        -77.9824   23.1774  -72.8631 C.3       4 UNK        -0.1981 
     54 N         -78.4993   23.2945  -75.2588 N.am      4 UNK        -0.4224 
     55 C         -78.2286   23.0690  -76.5523 C.2       3 UNK         0.4895 
     56 O         -77.0896   23.0597  -77.0183 O.2       3 UNK        -0.5091 
     57 CA        -79.4286   22.8861  -77.5000 C.3       3 UNK         0.0250 
     58 CB        -79.8121   21.4017  -77.6007 C.3       3 UNK        -0.1996 
     59 N         -80.6075   23.6716  -77.1184 N.am      3 UNK        -0.4254 
     60 C         -80.6340   25.0065  -76.9979 C.2       2 UNK         0.5004 
     61 O         -79.6577   25.7229  -77.2220 O.2       2 UNK        -0.5226 
     62 CA        -81.9344   25.6583  -76.4918 C.3       2 UNK         0.0269 
     63 CB        -83.1431   24.6965  -76.4334 C.3       2 UNK        -0.1926 
     64 N         -81.7472   26.3105  -75.1885 N.am      2 UNK        -0.4687 
     65 C         -81.2817   25.7586  -74.0570 C.2       1 UNK         0.5165 
     66 O         -80.9051   24.5874  -73.9799 O.2       1 UNK        -0.5079 
     67 H67       -85.0052   27.7436  -71.7585 H         1 UNK         0.0900 
     68 H68       -85.4256   28.2760  -73.3882 H         1 UNK         0.0900 
     69 H69       -84.7666   29.4290  -72.2241 H         1 UNK         0.0900 
     70 H70       -83.0931   26.5760  -71.7317 H         1 UNK         0.2959 
     71 H71       -80.6956   27.5474  -73.0526 H         1 UNK         0.1079 
     72 H72       -81.0666   25.0489  -71.3274 H         1 UNK         0.0837 
     73 H73       -79.5483   25.7408  -71.8466 H         1 UNK         0.0837 
     74 H74       -78.6768   27.6746  -68.7452 H         1 UNK         0.0685 
     75 H75       -78.4126   26.1407  -69.5383 H         1 UNK         0.0685 
     76 H76       -79.4746   29.1293  -71.5284 H         1 UNK         0.1434 
     77 H77       -75.6247   29.6250  -73.3302 H         1 UNK         0.1329 
     78 H78       -76.1524   26.7635  -70.1881 H         1 UNK         0.1335 
     79 H79       -73.9684   27.8600  -72.9653 H         1 UNK         0.0680 
     80 H80       -74.2397   26.6247  -71.7817 H         1 UNK         0.0680 
     81 H81       -72.9764   30.8558  -70.4033 H         1 UNK         0.1032 
     82 H82       -74.1138   30.5256  -71.6557 H         1 UNK         0.1032 
     83 H83       -72.2093   31.6814  -72.5727 H         1 UNK         0.0461 
     84 H84       -68.7433   29.7883  -72.1033 H         1 UNK         0.3453 
     85 H85       -69.9049   29.3156  -73.3185 H         1 UNK         0.3453 
     86 H86       -72.6109   28.9534  -73.5400 H         1 UNK         0.2984 
     87 H87       -73.2550   29.4552  -76.2677 H         1 UNK         0.0554 
     88 H88       -71.5925   29.0842  -78.0995 H         1 UNK         0.0847 
     89 H89       -70.3193   29.7679  -77.0883 H         1 UNK         0.0847 
     90 H90       -71.6606   30.7711  -77.6218 H         1 UNK         0.0847 
     91 H91       -72.7481   27.3440  -75.7776 H         1 UNK         0.3141 
     92 H92       -69.7632   25.5967  -75.1041 H         1 UNK         0.0743 
     93 H93       -72.2247   25.8252  -73.2946 H         1 UNK         0.0784 
     94 H94       -71.0627   24.5012  -73.3074 H         1 UNK         0.0784 
     95 H95       -70.5629   26.1086  -72.8061 H         1 UNK         0.0784 
     96 H96       -71.0133   24.4735  -76.5024 H         1 UNK         0.3213 
     97 H97       -72.6993   23.9556  -77.9652 H         1 UNK         0.0855 
     98 H98       -74.4358   22.8108  -75.7013 H         1 UNK         0.0814 
     99 H99       -72.8054   22.2913  -76.1055 H         1 UNK         0.0814 
    100 H100      -74.1190   22.0104  -77.2387 H         1 UNK         0.0814 
    101 H101      -75.5455   24.2684  -77.3379 H         1 UNK         0.3105 
    102 H102      -75.9852   27.1535  -79.4160 H         1 UNK         0.0547 
    103 H103      -76.4794   25.1785  -80.8187 H         1 UNK         0.0837 
    104 H104      -77.1221   24.3059  -79.4380 H         1 UNK         0.0837 
    105 H105      -77.9523   25.7392  -80.0423 H         1 UNK         0.0837 
    106 H106      -77.7105   25.9050  -77.5245 H         1 UNK         0.3020 
    107 H107      -76.5286   27.6008  -74.6370 H         1 UNK         0.1245 
    108 H108      -79.0871   28.1084  -74.5580 H         1 UNK         0.0781 
    109 H109      -79.0348   28.2058  -76.2909 H         1 UNK         0.0781 
    110 H110      -79.2956   30.5413  -73.3968 H         1 UNK         0.0836 
    111 H111      -77.8159   31.4663  -73.3119 H         1 UNK         0.0836 
    112 H112      -78.4692   25.5921  -75.6324 H         1 UNK         0.3022 
    113 H113      -76.5905   23.0186  -74.4690 H         1 UNK         0.0747 
    114 H114      -78.1472   22.1007  -72.8227 H         1 UNK         0.0793 
    115 H115      -77.2525   23.4204  -72.0896 H         1 UNK         0.0793 
    116 H116      -78.9169   23.6641  -72.5931 H         1 UNK         0.0793 
    117 H117      -79.4661   23.3633  -74.9579 H         1 UNK         0.3047 
    118 H118      -79.1175   23.2255  -78.4898 H         1 UNK         0.0822 
    119 H119      -80.5972   21.2431  -78.3403 H         1 UNK         0.0807 
    120 H120      -80.1642   21.0090  -76.6459 H         1 UNK         0.0807 
    121 H121      -78.9560   20.7979  -77.9057 H         1 UNK         0.0807 
    122 H122      -81.4446   23.1550  -76.8901 H         1 UNK         0.2946 
    123 H123      -82.1711   26.4472  -77.2077 H         1 UNK         0.1144 
    124 H124      -83.3350   24.2405  -77.4058 H         1 UNK         0.0793 
    125 H125      -84.0502   25.2319  -76.1523 H         1 UNK         0.0793 
    126 H126      -83.0018   23.8945  -75.7078 H         1 UNK         0.0793 
    127 H127      -82.0495   27.2787  -75.1294 H         1 UNK         0.2896 
@<TRIPOS>BOND
     1    1    2 1    
     2    1   67 1    
     3    1   68 1    
     4    1   69 1    
     5    2    3 2    
     6    2    4 am   BACKBONE|DICT|INTERRES
     7    4    5 1    
     8    4   70 1    
     9    5    6 1    
    10    5   65 1    
    11    5   71 1    
    12    6    7 1    
    13    6   72 1    
    14    6   73 1    
    15    7    8 1    
    16    8    9 1    
    17    8   74 1    
    18    8   75 1    
    19    9   10 ar   
    20    9   14 ar   
    21   10   11 ar   
    22   10   76 1    
    23   11   12 ar   
    24   11   48 1    
    25   12   13 ar   
    26   12   77 1    
    27   13   14 ar   
    28   13   15 1    
    29   14   78 1    
    30   15   16 1    
    31   15   79 1    
    32   15   80 1    
    33   16   17 1    
    34   17   18 1    
    35   17   81 1    
    36   17   82 1    
    37   18   19 1    
    38   18   22 1    
    39   18   83 1    
    40   19   20 am   BACKBONE|DICT|INTERRES
    41   19   21 2    
    42   20   84 1    
    43   20   85 1    
    44   22   23 am   BACKBONE|DICT|INTERRES
    45   22   86 1    
    46   23   24 2    
    47   23   25 1    
    48   25   26 1    
    49   25   27 1    
    50   25   87 1    
    51   26   88 1    
    52   26   89 1    
    53   26   90 1    
    54   27   28 am   BACKBONE|DICT|INTERRES
    55   27   91 1    
    56   28   29 2    
    57   28   30 1    
    58   30   31 1    
    59   30   32 1    
    60   30   92 1    
    61   31   93 1    
    62   31   94 1    
    63   31   95 1    
    64   32   33 am   BACKBONE|DICT|INTERRES
    65   32   96 1    
    66   33   34 2    
    67   33   35 1    
    68   35   36 1    
    69   35   37 1    
    70   35   97 1    
    71   36   98 1    
    72   36   99 1    
    73   36  100 1    
    74   37   38 am   BACKBONE|DICT|INTERRES
    75   37  101 1    
    76   38   39 2    
    77   38   40 1    
    78   40   41 1    
    79   40   42 1    
    80   40  102 1    
    81   41  103 1    
    82   41  104 1    
    83   41  105 1    
    84   42   43 am   BACKBONE|DICT|INTERRES
    85   42  106 1    
    86   43   44 2    
    87   43   45 1    
    88   45   46 1    
    89   45   49 1    
    90   45  107 1    
    91   46   47 1    
    92   46  108 1    
    93   46  109 1    
    94   47   48 1    
    95   48  110 1    
    96   48  111 1    
    97   49   50 am   BACKBONE|DICT|INTERRES
    98   49  112 1    
    99   50   51 2    
   100   50   52 1    
   101   52   53 1    
   102   52   54 1    
   103   52  113 1    
   104   53  114 1    
   105   53  115 1    
   106   53  116 1    
   107   54   55 am   BACKBONE|DICT|INTERRES
   108   54  117 1    
   109   55   56 2    
   110   55   57 1    
   111   57   58 1    
   112   57   59 1    
   113   57  118 1    
   114   58  119 1    
   115   58  120 1    
   116   58  121 1    
   117   59   60 am   BACKBONE|DICT|INTERRES
   118   59  122 1    
   119   60   61 2    
   120   60   62 1    
   121   62   63 1    
   122   62   64 1    
   123   62  123 1    
   124   63  124 1    
   125   63  125 1    
   126   63  126 1    
   127   64   65 am   BACKBONE|DICT|INTERRES
   128   64  127 1    
   129   65   66 2    
@<TRIPOS>SUBSTRUCTURE
     1 UNK         1 GROUP             0       ****    0 ROOT    
