@<TRIPOS>MOLECULE
3R135
127   129    1
SMALL
USER_CHARGES


@<TRIPOS>ATOM
      1 CA        -80.4859   21.7725  -72.2828 C.3       0 UNK        -0.1998 
      2 C         -81.0984   23.1217  -72.6253 C.2       0 UNK         0.4909 
      3 O         -81.8979   23.2121  -73.5575 O.2       0 UNK        -0.5240 
      4 N         -80.7169   24.1728  -71.8869 N.am      1 UNK        -0.4739 
      5 CA        -81.1520   25.5622  -72.0724 C.3       1 UNK         0.0864 
      6 C6        -80.5680   26.4627  -70.9566 C.3       11 UNK        -0.0881 
      7 S7        -81.3716   28.0963  -70.8777 S.3       11 UNK        -0.2682 
      8 C8        -80.0346   29.1135  -70.1711 C.3       11 UNK         0.0289 
      9 C9        -78.8829   29.3519  -71.1420 C.ar      11 UNK        -0.0687 
     10 C10       -79.1100   30.0056  -72.3571 C.ar      11 UNK        -0.0823 
     11 C11       -78.0515   30.2865  -73.2269 C.ar      11 UNK        -0.0830 
     12 C12       -76.7514   29.9205  -72.8630 C.ar      11 UNK        -0.1021 
     13 C13       -76.5104   29.2601  -71.6556 C.ar      11 UNK        -0.0753 
     14 C14       -77.5805   28.9697  -70.8028 C.ar      11 UNK        -0.0933 
     15 C15       -75.0879   28.8994  -71.2589 C.3       11 UNK         0.0166 
     16 S16       -74.4094   30.1738  -70.1547 S.3       11 UNK        -0.2615 
     17 C17       -72.6377   29.7424  -70.1051 C.3       11 UNK        -0.0865 
     18 CA        -71.7805   30.7790  -70.8892 C.3       10 UNK         0.0862 
     19 C         -70.2680   30.7561  -70.4999 C.2       10 UNK         0.5551 
     20 N         -69.3607   31.1679  -71.3773 N.am      10 UNK        -0.7319 
     21 O         -69.9096   30.3968  -69.3806 O.2       10 UNK        -0.5018 
     22 N         -72.0569   30.7536  -72.3401 N.am      10 UNK        -0.4509 
     23 C         -71.7000   29.7824  -73.1920 C.2       10 UNK         0.4899 
     24 O         -71.0696   28.7761  -72.8585 O.2       10 UNK        -0.4839 
     25 CA        -72.0922   30.0008  -74.6676 C.3       9 UNK         0.0222 
     26 CB        -71.3946   31.2445  -75.2491 C.3       9 UNK        -0.1966 
     27 N         -71.7438   28.8447  -75.4972 N.am      9 UNK        -0.4218 
     28 C         -72.4272   27.6949  -75.5370 C.2       9 UNK         0.5020 
     29 O         -73.4987   27.5107  -74.9590 O.2       9 UNK        -0.5274 
     30 CA        -71.7568   26.5508  -76.3079 C.3       8 UNK         0.0270 
     31 CB        -70.7573   25.8084  -75.3982 C.3       8 UNK        -0.1976 
     32 N         -72.7515   25.6123  -76.8284 N.am      8 UNK        -0.4313 
     33 C         -72.5285   24.7590  -77.8382 C.2       8 UNK         0.5041 
     34 O         -71.4616   24.6936  -78.4517 O.2       8 UNK        -0.5577 
     35 CA        -73.6728   23.8193  -78.2480 C.3       7 UNK         0.0284 
     36 CB        -73.8233   22.6558  -77.2529 C.3       7 UNK        -0.1958 
     37 N         -74.9395   24.5369  -78.3778 N.am      7 UNK        -0.4454 
     38 C         -75.3365   25.1723  -79.4892 C.2       7 UNK         0.5089 
     39 O         -74.6956   25.1740  -80.5411 O.2       7 UNK        -0.5125 
     40 CA        -76.6762   25.9322  -79.4366 C.3       6 UNK         0.0408 
     41 CB        -77.8075   25.0599  -80.0029 C.3       6 UNK        -0.1791 
     42 N         -77.0481   26.3854  -78.0957 N.am      6 UNK        -0.4762 
     43 C         -76.3767   27.2988  -77.3787 C.2       6 UNK         0.5007 
     44 O         -75.3939   27.9104  -77.7990 O.2       6 UNK        -0.5032 
     45 CA        -76.8756   27.5320  -75.9370 C.3       5 UNK         0.0783 
     46 C46       -78.0597   28.5341  -75.9230 C.3       11 UNK        -0.0857 
     47 S47       -77.4851   30.2648  -75.9831 S.3       11 UNK        -0.2512 
     48 C48       -78.3269   31.0071  -74.5434 C.3       11 UNK         0.0225 
     49 N         -77.2176   26.2800  -75.2482 N.am      5 UNK        -0.4615 
     50 C         -76.4159   25.2157  -75.0909 C.2       4 UNK         0.5053 
     51 O         -75.2589   25.1568  -75.4982 O.2       4 UNK        -0.5105 
     52 CA        -77.0359   23.9671  -74.4483 C.3       4 UNK         0.0263 
     53 CB        -77.1107   24.0951  -72.9176 C.3       4 UNK        -0.1981 
     54 N         -78.3607   23.7036  -75.0107 N.am      4 UNK        -0.4224 
     55 C         -78.5642   23.1909  -76.2343 C.2       3 UNK         0.4895 
     56 O         -77.6611   22.7742  -76.9594 O.2       3 UNK        -0.5091 
     57 CA        -80.0112   23.1657  -76.7561 C.3       3 UNK         0.0250 
     58 CB        -80.6712   21.8072  -76.4731 C.3       3 UNK        -0.1996 
     59 N         -80.8315   24.2452  -76.1988 N.am      3 UNK        -0.4254 
     60 C         -80.7022   25.5342  -76.5499 C.2       2 UNK         0.5004 
     61 O         -79.9123   25.9291  -77.4074 O.2       2 UNK        -0.5226 
     62 CA        -81.5529   26.5637  -75.7818 C.3       2 UNK         0.0269 
     63 CB        -82.9133   26.7585  -76.4686 C.3       2 UNK        -0.1926 
     64 N         -81.7606   26.2173  -74.3710 N.am      2 UNK        -0.4687 
     65 C         -80.7713   26.0656  -73.4797 C.2       1 UNK         0.5165 
     66 O         -79.5847   26.2385  -73.7555 O.2       1 UNK        -0.5079 
     67 H67       -79.9313   21.8036  -71.3452 H         1 UNK         0.0900 
     68 H68       -81.2672   21.0190  -72.1877 H         1 UNK         0.0900 
     69 H69       -79.8026   21.4585  -73.0713 H         1 UNK         0.0900 
     70 H70       -80.0472   24.0277  -71.1450 H         1 UNK         0.2959 
     71 H71       -82.2405   25.5696  -71.9825 H         1 UNK         0.1079 
     72 H72       -79.4890   26.5793  -71.0778 H         1 UNK         0.0837 
     73 H73       -80.7107   25.9912  -69.9829 H         1 UNK         0.0837 
     74 H74       -80.4494   30.0795  -69.8806 H         1 UNK         0.0685 
     75 H75       -79.6808   28.6448  -69.2513 H         1 UNK         0.0685 
     76 H76       -80.1168   30.3025  -72.6179 H         1 UNK         0.1434 
     77 H77       -75.9240   30.1532  -73.5195 H         1 UNK         0.1329 
     78 H78       -77.3905   28.4757  -69.8598 H         1 UNK         0.1335 
     79 H79       -74.4598   28.8050  -72.1465 H         1 UNK         0.0680 
     80 H80       -75.0687   27.9305  -70.7576 H         1 UNK         0.0680 
     81 H81       -72.4743   28.7312  -70.4808 H         1 UNK         0.1032 
     82 H82       -72.3551   29.7186  -69.0513 H         1 UNK         0.1032 
     83 H83       -72.1036   31.7674  -70.5601 H         1 UNK         0.0461 
     84 H84       -69.6410   31.4749  -72.2944 H         1 UNK         0.3453 
     85 H85       -68.3862   31.1628  -71.1203 H         1 UNK         0.3453 
     86 H86       -72.5588   31.5536  -72.6972 H         1 UNK         0.2984 
     87 H87       -73.1731   30.1519  -74.7122 H         1 UNK         0.0554 
     88 H88       -71.6863   32.1522  -74.7198 H         1 UNK         0.0847 
     89 H89       -71.6586   31.3923  -76.2966 H         1 UNK         0.0847 
     90 H90       -70.3083   31.1657  -75.1866 H         1 UNK         0.0847 
     91 H91       -70.8472   28.8838  -75.9598 H         1 UNK         0.3141 
     92 H92       -71.2185   26.9874  -77.1521 H         1 UNK         0.0743 
     93 H93       -71.2651   25.3192  -74.5659 H         1 UNK         0.0784 
     94 H94       -70.2028   25.0470  -75.9468 H         1 UNK         0.0784 
     95 H95       -70.0247   26.4957  -74.9727 H         1 UNK         0.0784 
     96 H96       -73.6558   25.6237  -76.3537 H         1 UNK         0.3213 
     97 H97       -73.4143   23.3843  -79.2163 H         1 UNK         0.0855 
     98 H98       -74.0292   23.0015  -76.2403 H         1 UNK         0.0814 
     99 H99       -72.9086   22.0633  -77.2111 H         1 UNK         0.0814 
    100 H100      -74.6317   21.9858  -77.5466 H         1 UNK         0.0814 
    101 H101      -75.4963   24.6290  -77.5366 H         1 UNK         0.3105 
    102 H102      -76.5779   26.8163  -80.0697 H         1 UNK         0.0547 
    103 H103      -77.5810   24.7374  -81.0200 H         1 UNK         0.0837 
    104 H104      -77.9622   24.1625  -79.4029 H         1 UNK         0.0837 
    105 H105      -78.7508   25.6054  -80.0385 H         1 UNK         0.0837 
    106 H106      -77.8971   25.9923  -77.6999 H         1 UNK         0.3020 
    107 H107      -76.0450   27.9601  -75.3721 H         1 UNK         0.1245 
    108 H108      -78.6545   28.3967  -75.0201 H         1 UNK         0.0781 
    109 H109      -78.7513   28.3598  -76.7494 H         1 UNK         0.0781 
    110 H110      -79.3978   31.0323  -74.7511 H         1 UNK         0.0836 
    111 H111      -78.0079   32.0456  -74.4473 H         1 UNK         0.0836 
    112 H112      -78.1398   26.2476  -74.8175 H         1 UNK         0.3022 
    113 H113      -76.3897   23.1166  -74.6776 H         1 UNK         0.0747 
    114 H114      -77.5435   23.2027  -72.4659 H         1 UNK         0.0793 
    115 H115      -76.1130   24.2199  -72.4949 H         1 UNK         0.0793 
    116 H116      -77.7010   24.9537  -72.6000 H         1 UNK         0.0793 
    117 H117      -79.1494   24.0906  -74.5123 H         1 UNK         0.3047 
    118 H118      -79.9688   23.2975  -77.8397 H         1 UNK         0.0822 
    119 H119      -81.6799   21.7632  -76.8842 H         1 UNK         0.0807 
    120 H120      -80.7356   21.5988  -75.4056 H         1 UNK         0.0807 
    121 H121      -80.1009   20.9962  -76.9281 H         1 UNK         0.0807 
    122 H122      -81.4698   23.9987  -75.4486 H         1 UNK         0.2946 
    123 H123      -81.0155   27.5138  -75.8125 H         1 UNK         0.1144 
    124 H124      -83.4884   27.5529  -75.9925 H         1 UNK         0.0793 
    125 H125      -83.5128   25.8475  -76.4448 H         1 UNK         0.0793 
    126 H126      -82.7847   27.0372  -77.5157 H         1 UNK         0.0793 
    127 H127      -82.7091   26.0169  -74.0871 H         1 UNK         0.2896 
@<TRIPOS>BOND
     1    1    2 1    
     2    1   67 1    
     3    1   68 1    
     4    1   69 1    
     5    2    3 2    
     6    2    4 am   BACKBONE|DICT|INTERRES
     7    4    5 1    
     8    4   70 1    
     9    5    6 1    
    10    5   65 1    
    11    5   71 1    
    12    6    7 1    
    13    6   72 1    
    14    6   73 1    
    15    7    8 1    
    16    8    9 1    
    17    8   74 1    
    18    8   75 1    
    19    9   10 ar   
    20    9   14 ar   
    21   10   11 ar   
    22   10   76 1    
    23   11   12 ar   
    24   11   48 1    
    25   12   13 ar   
    26   12   77 1    
    27   13   14 ar   
    28   13   15 1    
    29   14   78 1    
    30   15   16 1    
    31   15   79 1    
    32   15   80 1    
    33   16   17 1    
    34   17   18 1    
    35   17   81 1    
    36   17   82 1    
    37   18   19 1    
    38   18   22 1    
    39   18   83 1    
    40   19   20 am   BACKBONE|DICT|INTERRES
    41   19   21 2    
    42   20   84 1    
    43   20   85 1    
    44   22   23 am   BACKBONE|DICT|INTERRES
    45   22   86 1    
    46   23   24 2    
    47   23   25 1    
    48   25   26 1    
    49   25   27 1    
    50   25   87 1    
    51   26   88 1    
    52   26   89 1    
    53   26   90 1    
    54   27   28 am   BACKBONE|DICT|INTERRES
    55   27   91 1    
    56   28   29 2    
    57   28   30 1    
    58   30   31 1    
    59   30   32 1    
    60   30   92 1    
    61   31   93 1    
    62   31   94 1    
    63   31   95 1    
    64   32   33 am   BACKBONE|DICT|INTERRES
    65   32   96 1    
    66   33   34 2    
    67   33   35 1    
    68   35   36 1    
    69   35   37 1    
    70   35   97 1    
    71   36   98 1    
    72   36   99 1    
    73   36  100 1    
    74   37   38 am   BACKBONE|DICT|INTERRES
    75   37  101 1    
    76   38   39 2    
    77   38   40 1    
    78   40   41 1    
    79   40   42 1    
    80   40  102 1    
    81   41  103 1    
    82   41  104 1    
    83   41  105 1    
    84   42   43 am   BACKBONE|DICT|INTERRES
    85   42  106 1    
    86   43   44 2    
    87   43   45 1    
    88   45   46 1    
    89   45   49 1    
    90   45  107 1    
    91   46   47 1    
    92   46  108 1    
    93   46  109 1    
    94   47   48 1    
    95   48  110 1    
    96   48  111 1    
    97   49   50 am   BACKBONE|DICT|INTERRES
    98   49  112 1    
    99   50   51 2    
   100   50   52 1    
   101   52   53 1    
   102   52   54 1    
   103   52  113 1    
   104   53  114 1    
   105   53  115 1    
   106   53  116 1    
   107   54   55 am   BACKBONE|DICT|INTERRES
   108   54  117 1    
   109   55   56 2    
   110   55   57 1    
   111   57   58 1    
   112   57   59 1    
   113   57  118 1    
   114   58  119 1    
   115   58  120 1    
   116   58  121 1    
   117   59   60 am   BACKBONE|DICT|INTERRES
   118   59  122 1    
   119   60   61 2    
   120   60   62 1    
   121   62   63 1    
   122   62   64 1    
   123   62  123 1    
   124   63  124 1    
   125   63  125 1    
   126   63  126 1    
   127   64   65 am   BACKBONE|DICT|INTERRES
   128   64  127 1    
   129   65   66 2    
@<TRIPOS>SUBSTRUCTURE
     1 UNK         1 GROUP             0       ****    0 ROOT    
