@<TRIPOS>MOLECULE
3R135
127   129    1
SMALL
USER_CHARGES


@<TRIPOS>ATOM
      1 CA        -83.6572   24.1498  -72.6527 C.3       0 UNK        -0.1998 
      2 C         -82.9178   25.2312  -73.4253 C.2       0 UNK         0.4909 
      3 O         -82.6863   25.0848  -74.6276 O.2       0 UNK        -0.5240 
      4 N         -82.5545   26.3208  -72.7364 N.am      1 UNK        -0.4739 
      5 CA        -81.8398   27.4756  -73.2906 C.3       1 UNK         0.0864 
      6 C6        -81.7822   28.6655  -72.2975 C.3       11 UNK        -0.0881 
      7 S7        -81.0913   28.2591  -70.6553 S.3       11 UNK        -0.2682 
      8 C8        -79.6842   29.4129  -70.5275 C.3       11 UNK         0.0289 
      9 C9        -78.4261   28.9020  -71.2195 C.ar      11 UNK        -0.0687 
     10 C10       -77.8273   27.7141  -70.7879 C.ar      11 UNK        -0.0823 
     11 C11       -76.6365   27.2651  -71.3651 C.ar      11 UNK        -0.0830 
     12 C12       -76.0347   28.0192  -72.3750 C.ar      11 UNK        -0.1021 
     13 C13       -76.6220   29.2068  -72.8180 C.ar      11 UNK        -0.0753 
     14 C14       -77.8227   29.6408  -72.2441 C.ar      11 UNK        -0.0933 
     15 C15       -75.9444   30.0192  -73.9091 C.3       11 UNK         0.0166 
     16 S16       -74.9364   31.3504  -73.1954 S.3       11 UNK        -0.2615 
     17 C17       -74.0259   31.9376  -74.6692 C.3       11 UNK        -0.0865 
     18 CA        -72.5082   32.1326  -74.4124 C.3       10 UNK         0.0862 
     19 C         -72.2308   33.3900  -73.5329 C.2       10 UNK         0.5551 
     20 N         -71.7196   33.2531  -72.3152 N.am      10 UNK        -0.7319 
     21 O         -72.4761   34.5107  -73.9731 O.2       10 UNK        -0.5018 
     22 N         -71.8730   30.8822  -73.9642 N.am      10 UNK        -0.4509 
     23 C         -70.5570   30.6516  -73.9087 C.2       10 UNK         0.4899 
     24 O         -69.7014   31.4511  -74.2886 O.2       10 UNK        -0.4839 
     25 CA        -70.1134   29.2972  -73.3315 C.3       9 UNK         0.0222 
     26 CB        -70.5893   29.1027  -71.8759 C.3       9 UNK        -0.1966 
     27 N         -70.4706   28.1580  -74.1855 N.am      9 UNK        -0.4218 
     28 C         -71.6890   27.6807  -74.4757 C.2       9 UNK         0.5020 
     29 O         -72.7431   28.1238  -74.0116 O.2       9 UNK        -0.5274 
     30 CA        -71.7145   26.4637  -75.4167 C.3       8 UNK         0.0270 
     31 CB        -71.5522   25.1665  -74.6086 C.3       8 UNK        -0.1976 
     32 N         -72.9474   26.3953  -76.2047 N.am      8 UNK        -0.4313 
     33 C         -73.2830   27.2728  -77.1625 C.2       8 UNK         0.5041 
     34 O         -72.5437   28.1908  -77.5253 O.2       8 UNK        -0.5577 
     35 CA        -74.6717   27.1174  -77.8184 C.3       7 UNK         0.0284 
     36 CB        -74.7281   27.6914  -79.2498 C.3       7 UNK        -0.1958 
     37 N         -75.2079   25.7527  -77.7845 N.am      7 UNK        -0.4454 
     38 C         -74.6910   24.6446  -78.3355 C.2       7 UNK         0.5089 
     39 O         -73.6651   24.6291  -79.0178 O.2       7 UNK        -0.5125 
     40 CA        -75.4504   23.3295  -78.0494 C.3       6 UNK         0.0408 
     41 CB        -74.5849   22.0763  -78.2958 C.3       6 UNK        -0.1791 
     42 N         -76.0530   23.2816  -76.7087 N.am      6 UNK        -0.4762 
     43 C         -75.4209   23.4265  -75.5311 C.2       6 UNK         0.5007 
     44 O         -74.2056   23.5965  -75.4413 O.2       6 UNK        -0.5032 
     45 CA        -76.2636   23.4172  -74.2370 C.3       5 UNK         0.0783 
     46 C46       -75.9733   24.6691  -73.3734 C.3       11 UNK        -0.0857 
     47 S47       -76.7096   24.5225  -71.7120 S.3       11 UNK        -0.2512 
     48 C48       -75.9936   25.9742  -70.8830 C.3       11 UNK         0.0225 
     49 N         -77.6965   23.2926  -74.5151 N.am      5 UNK        -0.4615 
     50 C         -78.3727   22.1412  -74.5829 C.2       4 UNK         0.5053 
     51 O         -77.8668   21.0351  -74.3928 O.2       4 UNK        -0.5105 
     52 CA        -79.8653   22.2382  -74.9461 C.3       4 UNK         0.0263 
     53 CB        -80.7221   22.2759  -73.6731 C.3       4 UNK        -0.1981 
     54 N         -80.1873   23.3963  -75.7892 N.am      4 UNK        -0.4224 
     55 C         -79.7462   23.5534  -77.0464 C.2       3 UNK         0.4895 
     56 O         -79.0436   22.7304  -77.6338 O.2       3 UNK        -0.5091 
     57 CA        -80.1009   24.8711  -77.7515 C.3       3 UNK         0.0250 
     58 CB        -81.5475   24.8412  -78.2701 C.3       3 UNK        -0.1996 
     59 N         -79.9046   26.0503  -76.9057 N.am      3 UNK        -0.4254 
     60 C         -78.7320   26.4425  -76.3843 C.2       2 UNK         0.5004 
     61 O         -77.6742   25.8361  -76.5356 O.2       2 UNK        -0.5226 
     62 CA        -78.7364   27.7241  -75.5382 C.3       2 UNK         0.0269 
     63 CB        -78.4658   28.9458  -76.4307 C.3       2 UNK        -0.1926 
     64 N         -79.9916   27.9264  -74.8144 N.am      2 UNK        -0.4687 
     65 C         -80.4483   27.1145  -73.8509 C.2       1 UNK         0.5165 
     66 O         -79.8358   26.1257  -73.4388 O.2       1 UNK        -0.5079 
     67 H67       -84.3788   24.5866  -71.9626 H         1 UNK         0.0900 
     68 H68       -84.1987   23.4937  -73.3339 H         1 UNK         0.0900 
     69 H69       -82.9557   23.5449  -72.0794 H         1 UNK         0.0900 
     70 H70       -82.7259   26.3623  -71.7417 H         1 UNK         0.2959 
     71 H71       -82.4346   27.8034  -74.1464 H         1 UNK         0.1079 
     72 H72       -82.7940   29.0400  -72.1347 H         1 UNK         0.0837 
     73 H73       -81.2368   29.5045  -72.7336 H         1 UNK         0.0837 
     74 H74       -79.4568   29.5579  -69.4705 H         1 UNK         0.0685 
     75 H75       -79.9758   30.3931  -70.9080 H         1 UNK         0.0685 
     76 H76       -78.2902   27.1388  -69.9977 H         1 UNK         0.1434 
     77 H77       -75.1049   27.6841  -72.8152 H         1 UNK         0.1329 
     78 H78       -78.2694   30.5670  -72.5783 H         1 UNK         0.1335 
     79 H79       -76.6890   30.4583  -74.5721 H         1 UNK         0.0680 
     80 H80       -75.3180   29.3702  -74.5240 H         1 UNK         0.0680 
     81 H81       -74.4842   32.8648  -75.0190 H         1 UNK         0.1032 
     82 H82       -74.1569   31.2259  -75.4857 H         1 UNK         0.1032 
     83 H83       -72.0584   32.3630  -75.3801 H         1 UNK         0.0461 
     84 H84       -71.5401   34.0725  -71.7569 H         1 UNK         0.3453 
     85 H85       -71.5286   32.3357  -71.9472 H         1 UNK         0.3453 
     86 H86       -72.4976   30.1318  -73.6868 H         1 UNK         0.2984 
     87 H87       -69.0225   29.3117  -73.3078 H         1 UNK         0.0554 
     88 H88       -70.2428   29.9199  -71.2423 H         1 UNK         0.0847 
     89 H89       -70.1950   28.1786  -71.4534 H         1 UNK         0.0847 
     90 H90       -71.6757   29.0678  -71.7914 H         1 UNK         0.0847 
     91 H91       -69.6835   27.7145  -74.6394 H         1 UNK         0.3141 
     92 H92       -70.8790   26.5442  -76.1153 H         1 UNK         0.0743 
     93 H93       -70.6218   25.1696  -74.0394 H         1 UNK         0.0784 
     94 H94       -71.5279   24.2932  -75.2609 H         1 UNK         0.0784 
     95 H95       -72.3682   25.0314  -73.8974 H         1 UNK         0.0784 
     96 H96       -73.5890   25.6456  -75.9769 H         1 UNK         0.3213 
     97 H97       -75.3477   27.7118  -77.2028 H         1 UNK         0.0855 
     98 H98       -74.0285   27.1851  -79.9154 H         1 UNK         0.0814 
     99 H99       -74.4741   28.7521  -79.2579 H         1 UNK         0.0814 
    100 H100      -75.7269   27.5969  -79.6758 H         1 UNK         0.0814 
    101 H101      -76.0805   25.6491  -77.2629 H         1 UNK         0.3105 
    102 H102      -76.2824   23.3015  -78.7544 H         1 UNK         0.0547 
    103 H103      -75.1474   21.1623  -78.1063 H         1 UNK         0.0837 
    104 H104      -73.7000   22.0647  -77.6586 H         1 UNK         0.0837 
    105 H105      -74.2410   22.0346  -79.3299 H         1 UNK         0.0837 
    106 H106      -77.0613   23.1816  -76.6935 H         1 UNK         0.3020 
    107 H107      -75.9293   22.5412  -73.6762 H         1 UNK         0.1245 
    108 H108      -76.3595   25.5673  -73.8590 H         1 UNK         0.0781 
    109 H109      -74.8995   24.8202  -73.2464 H         1 UNK         0.0781 
    110 H110      -74.9141   25.9969  -71.0409 H         1 UNK         0.0836 
    111 H111      -76.1395   25.8720  -69.8066 H         1 UNK         0.0836 
    112 H112      -78.1933   24.1580  -74.6771 H         1 UNK         0.3022 
    113 H113      -80.1242   21.3360  -75.5045 H         1 UNK         0.0747 
    114 H114      -81.7839   22.2332  -73.9148 H         1 UNK         0.0793 
    115 H115      -80.5035   21.4243  -73.0273 H         1 UNK         0.0793 
    116 H116      -80.5389   23.1820  -73.0935 H         1 UNK         0.0793 
    117 H117      -80.7724   24.1169  -75.3807 H         1 UNK         0.3047 
    118 H118      -79.4336   24.9715  -78.6104 H         1 UNK         0.0822 
    119 H119      -81.7759   25.7286  -78.8605 H         1 UNK         0.0807 
    120 H120      -82.2697   24.7856  -77.4542 H         1 UNK         0.0807 
    121 H121      -81.7140   23.9752  -78.9124 H         1 UNK         0.0807 
    122 H122      -80.7233   26.6053  -76.7042 H         1 UNK         0.2946 
    123 H123      -77.9347   27.6352  -74.8019 H         1 UNK         0.1144 
    124 H124      -78.5047   29.8742  -75.8621 H         1 UNK         0.0793 
    125 H125      -79.1940   29.0252  -77.2391 H         1 UNK         0.0793 
    126 H126      -77.4782   28.8841  -76.8887 H         1 UNK         0.0793 
    127 H127      -80.5478   28.7223  -75.0924 H         1 UNK         0.2896 
@<TRIPOS>BOND
     1    1    2 1    
     2    1   67 1    
     3    1   68 1    
     4    1   69 1    
     5    2    3 2    
     6    2    4 am   BACKBONE|DICT|INTERRES
     7    4    5 1    
     8    4   70 1    
     9    5    6 1    
    10    5   65 1    
    11    5   71 1    
    12    6    7 1    
    13    6   72 1    
    14    6   73 1    
    15    7    8 1    
    16    8    9 1    
    17    8   74 1    
    18    8   75 1    
    19    9   10 ar   
    20    9   14 ar   
    21   10   11 ar   
    22   10   76 1    
    23   11   12 ar   
    24   11   48 1    
    25   12   13 ar   
    26   12   77 1    
    27   13   14 ar   
    28   13   15 1    
    29   14   78 1    
    30   15   16 1    
    31   15   79 1    
    32   15   80 1    
    33   16   17 1    
    34   17   18 1    
    35   17   81 1    
    36   17   82 1    
    37   18   19 1    
    38   18   22 1    
    39   18   83 1    
    40   19   20 am   BACKBONE|DICT|INTERRES
    41   19   21 2    
    42   20   84 1    
    43   20   85 1    
    44   22   23 am   BACKBONE|DICT|INTERRES
    45   22   86 1    
    46   23   24 2    
    47   23   25 1    
    48   25   26 1    
    49   25   27 1    
    50   25   87 1    
    51   26   88 1    
    52   26   89 1    
    53   26   90 1    
    54   27   28 am   BACKBONE|DICT|INTERRES
    55   27   91 1    
    56   28   29 2    
    57   28   30 1    
    58   30   31 1    
    59   30   32 1    
    60   30   92 1    
    61   31   93 1    
    62   31   94 1    
    63   31   95 1    
    64   32   33 am   BACKBONE|DICT|INTERRES
    65   32   96 1    
    66   33   34 2    
    67   33   35 1    
    68   35   36 1    
    69   35   37 1    
    70   35   97 1    
    71   36   98 1    
    72   36   99 1    
    73   36  100 1    
    74   37   38 am   BACKBONE|DICT|INTERRES
    75   37  101 1    
    76   38   39 2    
    77   38   40 1    
    78   40   41 1    
    79   40   42 1    
    80   40  102 1    
    81   41  103 1    
    82   41  104 1    
    83   41  105 1    
    84   42   43 am   BACKBONE|DICT|INTERRES
    85   42  106 1    
    86   43   44 2    
    87   43   45 1    
    88   45   46 1    
    89   45   49 1    
    90   45  107 1    
    91   46   47 1    
    92   46  108 1    
    93   46  109 1    
    94   47   48 1    
    95   48  110 1    
    96   48  111 1    
    97   49   50 am   BACKBONE|DICT|INTERRES
    98   49  112 1    
    99   50   51 2    
   100   50   52 1    
   101   52   53 1    
   102   52   54 1    
   103   52  113 1    
   104   53  114 1    
   105   53  115 1    
   106   53  116 1    
   107   54   55 am   BACKBONE|DICT|INTERRES
   108   54  117 1    
   109   55   56 2    
   110   55   57 1    
   111   57   58 1    
   112   57   59 1    
   113   57  118 1    
   114   58  119 1    
   115   58  120 1    
   116   58  121 1    
   117   59   60 am   BACKBONE|DICT|INTERRES
   118   59  122 1    
   119   60   61 2    
   120   60   62 1    
   121   62   63 1    
   122   62   64 1    
   123   62  123 1    
   124   63  124 1    
   125   63  125 1    
   126   63  126 1    
   127   64   65 am   BACKBONE|DICT|INTERRES
   128   64  127 1    
   129   65   66 2    
@<TRIPOS>SUBSTRUCTURE
     1 UNK         1 GROUP             0       ****    0 ROOT    
