@<TRIPOS>MOLECULE
3R135
127   129    1
SMALL
USER_CHARGES


@<TRIPOS>ATOM
      1 CA        -81.5380   28.1092  -70.1704 C.3       0 UNK        -0.1998 
      2 C         -82.2277   27.7080  -71.4658 C.2       0 UNK         0.4909 
      3 O         -83.3211   27.1437  -71.4298 O.2       0 UNK        -0.5240 
      4 N         -81.5959   28.0033  -72.6092 N.am      1 UNK        -0.4739 
      5 CA        -82.1115   27.7477  -73.9622 C.3       1 UNK         0.0864 
      6 C6        -81.2201   28.3881  -75.0584 C.3       11 UNK        -0.0881 
      7 S7        -80.8212   30.1488  -74.7855 S.3       11 UNK        -0.2682 
      8 C8        -79.0049   30.1414  -74.9596 C.3       11 UNK         0.0289 
      9 C9        -78.2911   29.9798  -73.6234 C.ar      11 UNK        -0.0687 
     10 C10       -78.3631   28.7800  -72.9058 C.ar      11 UNK        -0.0823 
     11 C11       -77.7270   28.6559  -71.6659 C.ar      11 UNK        -0.0830 
     12 C12       -76.9771   29.7231  -71.1677 C.ar      11 UNK        -0.1021 
     13 C13       -76.8540   30.9058  -71.8990 C.ar      11 UNK        -0.0753 
     14 C14       -77.5304   31.0370  -73.1142 C.ar      11 UNK        -0.0933 
     15 C15       -75.9753   32.0354  -71.3864 C.3       11 UNK         0.0166 
     16 S16       -74.3560   32.0453  -72.2191 S.3       11 UNK        -0.2615 
     17 C17       -73.5683   30.5507  -71.5222 C.3       11 UNK        -0.0865 
     18 CA        -72.2708   30.1657  -72.2818 C.3       10 UNK         0.0862 
     19 C         -71.4260   29.0984  -71.5242 C.2       10 UNK         0.5551 
     20 N         -70.7692   28.1630  -72.2008 N.am      10 UNK        -0.7319 
     21 O         -71.3451   29.1253  -70.2985 O.2       10 UNK        -0.5018 
     22 N         -72.5594   29.7763  -73.6723 N.am      10 UNK        -0.4509 
     23 C         -71.9583   30.2806  -74.7548 C.2       10 UNK         0.4899 
     24 O         -71.1354   31.1979  -74.7233 O.2       10 UNK        -0.4839 
     25 CA        -72.3305   29.6219  -76.0982 C.3       9 UNK         0.0222 
     26 CB        -71.4282   30.0834  -77.2615 C.3       9 UNK        -0.1966 
     27 N         -72.3671   28.1540  -76.0441 N.am      9 UNK        -0.4218 
     28 C         -71.3917   27.3236  -75.6388 C.2       9 UNK         0.5020 
     29 O         -70.3241   27.7051  -75.1569 O.2       9 UNK        -0.5274 
     30 CA        -71.6356   25.8070  -75.7670 C.3       8 UNK         0.0270 
     31 CB        -71.8749   25.1834  -74.3818 C.3       8 UNK        -0.1976 
     32 N         -72.7448   25.4554  -76.6582 N.am      8 UNK        -0.4313 
     33 C         -72.7326   25.6008  -77.9910 C.2       8 UNK         0.5041 
     34 O         -71.7465   25.9695  -78.6300 O.2       8 UNK        -0.5577 
     35 CA        -74.0514   25.3262  -78.7356 C.3       7 UNK         0.0284 
     36 CB        -74.1686   23.8378  -79.0990 C.3       7 UNK        -0.1958 
     37 N         -75.2410   25.7530  -77.9891 N.am      7 UNK        -0.4454 
     38 C         -75.5122   27.0222  -77.6470 C.2       7 UNK         0.5089 
     39 O         -74.7988   27.9793  -77.9453 O.2       7 UNK        -0.5125 
     40 CA        -76.7601   27.2620  -76.7812 C.3       6 UNK         0.0408 
     41 CB        -78.0376   27.1896  -77.6333 C.3       6 UNK        -0.1791 
     42 N         -76.8514   26.3202  -75.6650 N.am      6 UNK        -0.4762 
     43 C         -75.9585   26.2209  -74.6674 C.2       6 UNK         0.5007 
     44 O         -74.9961   26.9779  -74.5305 O.2       6 UNK        -0.5032 
     45 CA        -76.1321   25.0223  -73.7119 C.3       5 UNK         0.0783 
     46 C46       -77.1619   25.2921  -72.5917 C.3       11 UNK        -0.0857 
     47 S47       -76.4719   26.2391  -71.2002 S.3       11 UNK        -0.2512 
     48 C48       -77.8412   27.3804  -70.8473 C.3       11 UNK         0.0225 
     49 N         -76.4863   23.8076  -74.4476 N.am      5 UNK        -0.4615 
     50 C         -75.6625   23.1280  -75.2529 C.2       4 UNK         0.5053 
     51 O         -74.4920   23.4436  -75.4574 O.2       4 UNK        -0.5105 
     52 CA        -76.2597   21.9063  -75.9715 C.3       4 UNK         0.0263 
     53 CB        -76.1495   20.6545  -75.0870 C.3       4 UNK        -0.1981 
     54 N         -77.6576   22.1088  -76.3648 N.am      4 UNK        -0.4224 
     55 C         -78.0530   22.9873  -77.2967 C.2       3 UNK         0.4895 
     56 O         -77.2790   23.6936  -77.9422 O.2       3 UNK        -0.5091 
     57 CA        -79.5680   23.1364  -77.5134 C.3       3 UNK         0.0250 
     58 CB        -80.0946   22.0261  -78.4366 C.3       3 UNK        -0.1996 
     59 N         -80.3562   23.1665  -76.2739 N.am      3 UNK        -0.4254 
     60 C         -80.2052   24.0723  -75.2980 C.2       2 UNK         0.5004 
     61 O         -79.3047   24.9155  -75.2785 O.2       2 UNK        -0.5226 
     62 CA        -81.2075   24.0253  -74.1329 C.3       2 UNK         0.0269 
     63 CB        -80.6504   23.1891  -72.9705 C.3       2 UNK        -0.1926 
     64 N         -81.4654   25.3888  -73.6670 N.am      2 UNK        -0.4687 
     65 C         -82.2764   26.2492  -74.2986 C.2       1 UNK         0.5165 
     66 O         -83.0844   25.9105  -75.1651 O.2       1 UNK        -0.5079 
     67 H67       -82.2232   28.6768  -69.5413 H         1 UNK         0.0900 
     68 H68       -80.6588   28.7276  -70.3507 H         1 UNK         0.0900 
     69 H69       -81.2263   27.2220  -69.6200 H         1 UNK         0.0900 
     70 H70       -80.7380   28.5351  -72.5727 H         1 UNK         0.2959 
     71 H71       -83.1042   28.1996  -74.0197 H         1 UNK         0.1079 
     72 H72       -81.7145   28.3170  -76.0295 H         1 UNK         0.0837 
     73 H73       -80.2938   27.8211  -75.1625 H         1 UNK         0.0837 
     74 H74       -78.6871   29.3594  -75.6474 H         1 UNK         0.0685 
     75 H75       -78.7123   31.0811  -75.4306 H         1 UNK         0.0685 
     76 H76       -78.9141   27.9453  -73.3110 H         1 UNK         0.1434 
     77 H77       -76.4669   29.6227  -70.2192 H         1 UNK         0.1329 
     78 H78       -77.4435   31.9591  -73.6726 H         1 UNK         0.1335 
     79 H79       -75.8313   31.9595  -70.3074 H         1 UNK         0.0680 
     80 H80       -76.4702   32.9915  -71.5632 H         1 UNK         0.0680 
     81 H81       -74.2677   29.7145  -71.5442 H         1 UNK         0.1032 
     82 H82       -73.3625   30.7529  -70.4695 H         1 UNK         0.1032 
     83 H83       -71.6352   31.0529  -72.2804 H         1 UNK         0.0461 
     84 H84       -70.7568   28.1596  -73.2141 H         1 UNK         0.3453 
     85 H85       -70.2210   27.4884  -71.6919 H         1 UNK         0.3453 
     86 H86       -73.2056   29.0079  -73.7924 H         1 UNK         0.2984 
     87 H87       -73.3488   29.9427  -76.3225 H         1 UNK         0.0554 
     88 H88       -71.7395   29.6337  -78.2046 H         1 UNK         0.0847 
     89 H89       -70.3842   29.8174  -77.0917 H         1 UNK         0.0847 
     90 H90       -71.4736   31.1657  -77.3891 H         1 UNK         0.0847 
     91 H91       -73.2198   27.7366  -76.3984 H         1 UNK         0.3141 
     92 H92       -70.7245   25.3700  -76.1808 H         1 UNK         0.0743 
     93 H93       -72.7714   25.5829  -73.9078 H         1 UNK         0.0784 
     94 H94       -71.9830   24.1006  -74.4467 H         1 UNK         0.0784 
     95 H95       -71.0373   25.3835  -73.7123 H         1 UNK         0.0784 
     96 H96       -73.5676   25.0491  -76.2224 H         1 UNK         0.3213 
     97 H97       -74.0270   25.9004  -79.6642 H         1 UNK         0.0855 
     98 H98       -74.2096   23.2076  -78.2107 H         1 UNK         0.0814 
     99 H99       -73.3117   23.5122  -79.6902 H         1 UNK         0.0814 
    100 H100      -75.0632   23.6423  -79.6904 H         1 UNK         0.0814 
    101 H101      -75.9178   25.0300  -77.7553 H         1 UNK         0.3105 
    102 H102      -76.6842   28.2656  -76.3583 H         1 UNK         0.0547 
    103 H103      -78.1502   26.2191  -78.1161 H         1 UNK         0.0837 
    104 H104      -78.9306   27.3626  -77.0352 H         1 UNK         0.0837 
    105 H105      -78.0220   27.9441  -78.4207 H         1 UNK         0.0837 
    106 H106      -77.6447   25.6818  -75.6671 H         1 UNK         0.3020 
    107 H107      -75.1594   24.8389  -73.2490 H         1 UNK         0.1245 
    108 H108      -78.0592   25.7684  -72.9883 H         1 UNK         0.0781 
    109 H109      -77.4962   24.3470  -72.1618 H         1 UNK         0.0781 
    110 H110      -78.7995   26.8890  -71.0209 H         1 UNK         0.0836 
    111 H111      -77.8228   27.6253  -69.7841 H         1 UNK         0.0836 
    112 H112      -77.4507   23.5166  -74.3926 H         1 UNK         0.3022 
    113 H113      -75.6747   21.7355  -76.8775 H         1 UNK         0.0747 
    114 H114      -76.4970   19.7652  -75.6133 H         1 UNK         0.0793 
    115 H115      -75.1133   20.4729  -74.7975 H         1 UNK         0.0793 
    116 H116      -76.7317   20.7520  -74.1698 H         1 UNK         0.0793 
    117 H117      -78.3590   21.5645  -75.8838 H         1 UNK         0.3047 
    118 H118      -79.7248   24.0935  -78.0158 H         1 UNK         0.0822 
    119 H119      -81.1403   22.1896  -78.6978 H         1 UNK         0.0807 
    120 H120      -80.0133   21.0410  -77.9754 H         1 UNK         0.0807 
    121 H121      -79.5316   21.9959  -79.3709 H         1 UNK         0.0807 
    122 H122      -81.1097   22.4971  -76.2047 H         1 UNK         0.2946 
    123 H123      -82.1421   23.5764  -74.4777 H         1 UNK         0.1144 
    124 H124      -81.3607   23.1406  -72.1448 H         1 UNK         0.0793 
    125 H125      -79.7186   23.6001  -72.5835 H         1 UNK         0.0793 
    126 H126      -80.4508   22.1638  -73.2847 H         1 UNK         0.0793 
    127 H127      -80.8225   25.7628  -72.9862 H         1 UNK         0.2896 
@<TRIPOS>BOND
     1    1    2 1    
     2    1   67 1    
     3    1   68 1    
     4    1   69 1    
     5    2    3 2    
     6    2    4 am   BACKBONE|DICT|INTERRES
     7    4    5 1    
     8    4   70 1    
     9    5    6 1    
    10    5   65 1    
    11    5   71 1    
    12    6    7 1    
    13    6   72 1    
    14    6   73 1    
    15    7    8 1    
    16    8    9 1    
    17    8   74 1    
    18    8   75 1    
    19    9   10 ar   
    20    9   14 ar   
    21   10   11 ar   
    22   10   76 1    
    23   11   12 ar   
    24   11   48 1    
    25   12   13 ar   
    26   12   77 1    
    27   13   14 ar   
    28   13   15 1    
    29   14   78 1    
    30   15   16 1    
    31   15   79 1    
    32   15   80 1    
    33   16   17 1    
    34   17   18 1    
    35   17   81 1    
    36   17   82 1    
    37   18   19 1    
    38   18   22 1    
    39   18   83 1    
    40   19   20 am   BACKBONE|DICT|INTERRES
    41   19   21 2    
    42   20   84 1    
    43   20   85 1    
    44   22   23 am   BACKBONE|DICT|INTERRES
    45   22   86 1    
    46   23   24 2    
    47   23   25 1    
    48   25   26 1    
    49   25   27 1    
    50   25   87 1    
    51   26   88 1    
    52   26   89 1    
    53   26   90 1    
    54   27   28 am   BACKBONE|DICT|INTERRES
    55   27   91 1    
    56   28   29 2    
    57   28   30 1    
    58   30   31 1    
    59   30   32 1    
    60   30   92 1    
    61   31   93 1    
    62   31   94 1    
    63   31   95 1    
    64   32   33 am   BACKBONE|DICT|INTERRES
    65   32   96 1    
    66   33   34 2    
    67   33   35 1    
    68   35   36 1    
    69   35   37 1    
    70   35   97 1    
    71   36   98 1    
    72   36   99 1    
    73   36  100 1    
    74   37   38 am   BACKBONE|DICT|INTERRES
    75   37  101 1    
    76   38   39 2    
    77   38   40 1    
    78   40   41 1    
    79   40   42 1    
    80   40  102 1    
    81   41  103 1    
    82   41  104 1    
    83   41  105 1    
    84   42   43 am   BACKBONE|DICT|INTERRES
    85   42  106 1    
    86   43   44 2    
    87   43   45 1    
    88   45   46 1    
    89   45   49 1    
    90   45  107 1    
    91   46   47 1    
    92   46  108 1    
    93   46  109 1    
    94   47   48 1    
    95   48  110 1    
    96   48  111 1    
    97   49   50 am   BACKBONE|DICT|INTERRES
    98   49  112 1    
    99   50   51 2    
   100   50   52 1    
   101   52   53 1    
   102   52   54 1    
   103   52  113 1    
   104   53  114 1    
   105   53  115 1    
   106   53  116 1    
   107   54   55 am   BACKBONE|DICT|INTERRES
   108   54  117 1    
   109   55   56 2    
   110   55   57 1    
   111   57   58 1    
   112   57   59 1    
   113   57  118 1    
   114   58  119 1    
   115   58  120 1    
   116   58  121 1    
   117   59   60 am   BACKBONE|DICT|INTERRES
   118   59  122 1    
   119   60   61 2    
   120   60   62 1    
   121   62   63 1    
   122   62   64 1    
   123   62  123 1    
   124   63  124 1    
   125   63  125 1    
   126   63  126 1    
   127   64   65 am   BACKBONE|DICT|INTERRES
   128   64  127 1    
   129   65   66 2    
@<TRIPOS>SUBSTRUCTURE
     1 UNK         1 GROUP             0       ****    0 ROOT    
