@<TRIPOS>MOLECULE
3R135
127   129    1
SMALL
USER_CHARGES


@<TRIPOS>ATOM
      1 CA        -81.3758   31.3868  -75.7671 C.3       0 UNK        -0.1998 
      2 C         -80.9213   30.1044  -75.0862 C.2       0 UNK         0.4909 
      3 O         -79.9547   29.4880  -75.5317 O.2       0 UNK        -0.5240 
      4 N         -81.6092   29.7071  -74.0085 N.am      1 UNK        -0.4739 
      5 CA        -81.3327   28.4986  -73.2211 C.3       1 UNK         0.0864 
      6 C6        -82.1353   28.4857  -71.8953 C.3       11 UNK        -0.0881 
      7 S7        -81.8235   29.9619  -70.8697 S.3       11 UNK        -0.2682 
      8 C8        -80.7058   29.3005  -69.5919 C.3       11 UNK         0.0289 
      9 C9        -79.3540   28.8609  -70.1441 C.ar      11 UNK        -0.0687 
     10 C10       -78.8753   27.5721  -69.8870 C.ar      11 UNK        -0.0823 
     11 C11       -77.6070   27.1752  -70.3252 C.ar      11 UNK        -0.0830 
     12 C12       -76.8206   28.0875  -71.0415 C.ar      11 UNK        -0.1021 
     13 C13       -77.2910   29.3743  -71.3162 C.ar      11 UNK        -0.0753 
     14 C14       -78.5557   29.7566  -70.8622 C.ar      11 UNK        -0.0933 
     15 C15       -76.4177   30.3635  -72.0707 C.3       11 UNK         0.0166 
     16 S16       -76.5788   30.1530  -73.8693 S.3       11 UNK        -0.2615 
     17 C17       -75.5144   31.5099  -74.4721 C.3       11 UNK        -0.0865 
     18 CA        -74.2028   31.0325  -75.1538 C.3       10 UNK         0.0862 
     19 C         -73.4030   32.2617  -75.6800 C.2       10 UNK         0.5551 
     20 N         -72.2577   32.6065  -75.1043 N.am      10 UNK        -0.7319 
     21 O         -73.8378   32.9169  -76.6238 O.2       10 UNK        -0.5018 
     22 N         -73.4500   30.0987  -74.2972 N.am      10 UNK        -0.4509 
     23 C         -72.3938   29.3653  -74.6740 C.2       10 UNK         0.4899 
     24 O         -71.8624   29.4509  -75.7813 O.2       10 UNK        -0.4839 
     25 CA        -71.8258   28.3709  -73.6436 C.3       9 UNK         0.0222 
     26 CB        -72.6654   28.2521  -72.3527 C.3       9 UNK        -0.1966 
     27 N         -71.7343   27.0486  -74.2566 N.am      9 UNK        -0.4218 
     28 C         -70.6426   26.5042  -74.8078 C.2       9 UNK         0.5020 
     29 O         -69.5333   27.0402  -74.8230 O.2       9 UNK        -0.5274 
     30 CA        -70.8163   25.1164  -75.4438 C.3       8 UNK         0.0270 
     31 CB        -70.9109   24.0295  -74.3589 C.3       8 UNK        -0.1976 
     32 N         -72.0127   25.0634  -76.2870 N.am      8 UNK        -0.4313 
     33 C         -72.0123   25.1420  -77.6251 C.2       8 UNK         0.5041 
     34 O         -70.9893   25.2372  -78.3051 O.2       8 UNK        -0.5577 
     35 CA        -73.3768   25.0915  -78.3415 C.3       7 UNK         0.0284 
     36 CB        -73.6914   23.6549  -78.7895 C.3       7 UNK        -0.1958 
     37 N         -74.4835   25.5927  -77.5247 N.am      7 UNK        -0.4454 
     38 C         -74.6407   26.8704  -77.1541 C.2       7 UNK         0.5089 
     39 O         -73.9430   27.7907  -77.5762 O.2       7 UNK        -0.5125 
     40 CA        -75.7409   27.1758  -76.1216 C.3       6 UNK         0.0408 
     41 CB        -76.9967   27.7183  -76.8177 C.3       6 UNK        -0.1791 
     42 N         -76.1152   26.0365  -75.2775 N.am      6 UNK        -0.4762 
     43 C         -75.2995   25.3868  -74.4350 C.2       6 UNK         0.5007 
     44 O         -74.1055   25.6518  -74.3035 O.2       6 UNK        -0.5032 
     45 CA        -75.9002   24.1957  -73.6702 C.3       5 UNK         0.0783 
     46 C46       -76.7941   24.6474  -72.4904 C.3       11 UNK        -0.0857 
     47 S47       -75.8073   25.0915  -71.0276 S.3       11 UNK        -0.2512 
     48 C48       -77.0994   25.7838  -69.9402 C.3       11 UNK         0.0225 
     49 N         -76.6188   23.3222  -74.5967 N.am      5 UNK        -0.4615 
     50 C         -76.0305   22.4237  -75.3977 C.2       4 UNK         0.5053 
     51 O         -74.8235   22.1842  -75.3848 O.2       4 UNK        -0.5105 
     52 CA        -76.9342   21.6710  -76.3907 C.3       4 UNK         0.0263 
     53 CB        -77.3960   20.3346  -75.7880 C.3       4 UNK        -0.1981 
     54 N         -78.1065   22.4451  -76.8075 N.am      4 UNK        -0.4224 
     55 C         -78.0542   23.5516  -77.5625 C.2       3 UNK         0.4895 
     56 O         -77.0134   24.0181  -78.0239 O.2       3 UNK        -0.5091 
     57 CA        -79.3836   24.2894  -77.7981 C.3       3 UNK         0.0250 
     58 CB        -80.1311   23.6847  -78.9973 C.3       3 UNK        -0.1996 
     59 N         -80.2698   24.3173  -76.6262 N.am      3 UNK        -0.4254 
     60 C         -79.9435   24.8434  -75.4375 C.2       2 UNK         0.5004 
     61 O         -78.8255   25.2860  -75.1669 O.2       2 UNK        -0.5226 
     62 CA        -81.0178   24.8350  -74.3440 C.3       2 UNK         0.0269 
     63 CB        -80.7672   23.6856  -73.3544 C.3       2 UNK        -0.1926 
     64 N         -80.9759   26.1077  -73.6239 N.am      2 UNK        -0.4687 
     65 C         -81.6178   27.2117  -74.0249 C.2       1 UNK         0.5165 
     66 O         -82.4313   27.2248  -74.9538 O.2       1 UNK        -0.5079 
     67 H67       -82.2294   31.8374  -75.2610 H         1 UNK         0.0900 
     68 H68       -80.5640   32.1137  -75.7755 H         1 UNK         0.0900 
     69 H69       -81.6615   31.1823  -76.7986 H         1 UNK         0.0900 
     70 H70       -82.3972   30.2538  -73.6931 H         1 UNK         0.2959 
     71 H71       -80.2659   28.5063  -72.9843 H         1 UNK         0.1079 
     72 H72       -81.9051   27.5927  -71.3108 H         1 UNK         0.0837 
     73 H73       -83.2070   28.4414  -72.0995 H         1 UNK         0.0837 
     74 H74       -80.5385   30.0752  -68.8425 H         1 UNK         0.0685 
     75 H75       -81.2055   28.4795  -69.0752 H         1 UNK         0.0685 
     76 H76       -79.4808   26.8830  -69.3135 H         1 UNK         0.1434 
     77 H77       -75.8316   27.8106  -71.3765 H         1 UNK         0.1329 
     78 H78       -78.9176   30.7567  -71.0585 H         1 UNK         0.1335 
     79 H79       -76.6914   31.3847  -71.8003 H         1 UNK         0.0680 
     80 H80       -75.3747   30.2354  -71.7784 H         1 UNK         0.0680 
     81 H81       -76.1094   32.0935  -75.1775 H         1 UNK         0.1032 
     82 H82       -75.2868   32.1894  -73.6484 H         1 UNK         0.1032 
     83 H83       -74.4879   30.4623  -76.0404 H         1 UNK         0.0461 
     84 H84       -71.8916   32.0675  -74.3364 H         1 UNK         0.3453 
     85 H85       -71.7478   33.4029  -75.4528 H         1 UNK         0.3453 
     86 H86       -73.8204   29.9642  -73.3698 H         1 UNK         0.2984 
     87 H87       -70.8305   28.7241  -73.3671 H         1 UNK         0.0554 
     88 H88       -72.2264   27.5245  -71.6697 H         1 UNK         0.0847 
     89 H89       -73.6865   27.9270  -72.5584 H         1 UNK         0.0847 
     90 H90       -72.7106   29.1992  -71.8137 H         1 UNK         0.0847 
     91 H91       -72.6089   26.5256  -74.2995 H         1 UNK         0.3141 
     92 H92       -69.9260   24.9110  -76.0421 H         1 UNK         0.0743 
     93 H93       -71.7856   24.1632  -73.7209 H         1 UNK         0.0784 
     94 H94       -70.9717   23.0353  -74.8019 H         1 UNK         0.0784 
     95 H95       -70.0309   24.0443  -73.7145 H         1 UNK         0.0784 
     96 H96       -72.9037   25.0349  -75.8033 H         1 UNK         0.3213 
     97 H97       -73.3037   25.7200  -79.2317 H         1 UNK         0.0855 
     98 H98       -73.8076   22.9829  -77.9382 H         1 UNK         0.0814 
     99 H99       -72.8910   23.2559  -79.4142 H         1 UNK         0.0814 
    100 H100      -74.6093   23.6142  -79.3763 H         1 UNK         0.0814 
    101 H101      -75.1791   24.9197  -77.2250 H         1 UNK         0.3105 
    102 H102      -75.3520   27.9518  -75.4605 H         1 UNK         0.0547 
    103 H103      -76.7674   28.6144  -77.3955 H         1 UNK         0.0837 
    104 H104      -77.4254   26.9851  -77.5010 H         1 UNK         0.0837 
    105 H105      -77.7635   27.9895  -76.0918 H         1 UNK         0.0837 
    106 H106      -77.0946   25.7537  -75.3113 H         1 UNK         0.3020 
    107 H107      -75.0648   23.6217  -73.2607 H         1 UNK         0.1245 
    108 H108      -77.4517   23.8310  -72.1886 H         1 UNK         0.0781 
    109 H109      -77.4474   25.4774  -72.7682 H         1 UNK         0.0781 
    110 H110      -76.6957   25.8411  -68.9287 H         1 UNK         0.0836 
    111 H111      -77.9310   25.0783  -69.8980 H         1 UNK         0.0836 
    112 H112      -77.6012   23.5228  -74.7255 H         1 UNK         0.3022 
    113 H113      -76.3370   21.4581  -77.2802 H         1 UNK         0.0747 
    114 H114      -77.9719   19.7523  -76.5075 H         1 UNK         0.0793 
    115 H115      -76.5411   19.7250  -75.4914 H         1 UNK         0.0793 
    116 H116      -78.0142   20.4820  -74.9014 H         1 UNK         0.0793 
    117 H117      -79.0069   22.1322  -76.4747 H         1 UNK         0.3047 
    118 H118      -79.1383   25.3250  -78.0413 H         1 UNK         0.0822 
    119 H119      -81.0185   24.2667  -79.2468 H         1 UNK         0.0807 
    120 H120      -80.4451   22.6580  -78.8045 H         1 UNK         0.0807 
    121 H121      -79.4968   23.6702  -79.8850 H         1 UNK         0.0807 
    122 H122      -81.2047   23.9593  -76.7615 H         1 UNK         0.2946 
    123 H123      -82.0016   24.6977  -74.7994 H         1 UNK         0.1144 
    124 H124      -81.5298   23.6624  -72.5757 H         1 UNK         0.0793 
    125 H125      -79.7961   23.7730  -72.8668 H         1 UNK         0.0793 
    126 H126      -80.7934   22.7197  -73.8605 H         1 UNK         0.0793 
    127 H127      -80.2952   26.1777  -72.8814 H         1 UNK         0.2896 
@<TRIPOS>BOND
     1    1    2 1    
     2    1   67 1    
     3    1   68 1    
     4    1   69 1    
     5    2    3 2    
     6    2    4 am   BACKBONE|DICT|INTERRES
     7    4    5 1    
     8    4   70 1    
     9    5    6 1    
    10    5   65 1    
    11    5   71 1    
    12    6    7 1    
    13    6   72 1    
    14    6   73 1    
    15    7    8 1    
    16    8    9 1    
    17    8   74 1    
    18    8   75 1    
    19    9   10 ar   
    20    9   14 ar   
    21   10   11 ar   
    22   10   76 1    
    23   11   12 ar   
    24   11   48 1    
    25   12   13 ar   
    26   12   77 1    
    27   13   14 ar   
    28   13   15 1    
    29   14   78 1    
    30   15   16 1    
    31   15   79 1    
    32   15   80 1    
    33   16   17 1    
    34   17   18 1    
    35   17   81 1    
    36   17   82 1    
    37   18   19 1    
    38   18   22 1    
    39   18   83 1    
    40   19   20 am   BACKBONE|DICT|INTERRES
    41   19   21 2    
    42   20   84 1    
    43   20   85 1    
    44   22   23 am   BACKBONE|DICT|INTERRES
    45   22   86 1    
    46   23   24 2    
    47   23   25 1    
    48   25   26 1    
    49   25   27 1    
    50   25   87 1    
    51   26   88 1    
    52   26   89 1    
    53   26   90 1    
    54   27   28 am   BACKBONE|DICT|INTERRES
    55   27   91 1    
    56   28   29 2    
    57   28   30 1    
    58   30   31 1    
    59   30   32 1    
    60   30   92 1    
    61   31   93 1    
    62   31   94 1    
    63   31   95 1    
    64   32   33 am   BACKBONE|DICT|INTERRES
    65   32   96 1    
    66   33   34 2    
    67   33   35 1    
    68   35   36 1    
    69   35   37 1    
    70   35   97 1    
    71   36   98 1    
    72   36   99 1    
    73   36  100 1    
    74   37   38 am   BACKBONE|DICT|INTERRES
    75   37  101 1    
    76   38   39 2    
    77   38   40 1    
    78   40   41 1    
    79   40   42 1    
    80   40  102 1    
    81   41  103 1    
    82   41  104 1    
    83   41  105 1    
    84   42   43 am   BACKBONE|DICT|INTERRES
    85   42  106 1    
    86   43   44 2    
    87   43   45 1    
    88   45   46 1    
    89   45   49 1    
    90   45  107 1    
    91   46   47 1    
    92   46  108 1    
    93   46  109 1    
    94   47   48 1    
    95   48  110 1    
    96   48  111 1    
    97   49   50 am   BACKBONE|DICT|INTERRES
    98   49  112 1    
    99   50   51 2    
   100   50   52 1    
   101   52   53 1    
   102   52   54 1    
   103   52  113 1    
   104   53  114 1    
   105   53  115 1    
   106   53  116 1    
   107   54   55 am   BACKBONE|DICT|INTERRES
   108   54  117 1    
   109   55   56 2    
   110   55   57 1    
   111   57   58 1    
   112   57   59 1    
   113   57  118 1    
   114   58  119 1    
   115   58  120 1    
   116   58  121 1    
   117   59   60 am   BACKBONE|DICT|INTERRES
   118   59  122 1    
   119   60   61 2    
   120   60   62 1    
   121   62   63 1    
   122   62   64 1    
   123   62  123 1    
   124   63  124 1    
   125   63  125 1    
   126   63  126 1    
   127   64   65 am   BACKBONE|DICT|INTERRES
   128   64  127 1    
   129   65   66 2    
@<TRIPOS>SUBSTRUCTURE
     1 UNK         1 GROUP             0       ****    0 ROOT    
