@<TRIPOS>MOLECULE
3R135
127   129    1
SMALL
USER_CHARGES


@<TRIPOS>ATOM
      1 CA        -85.4794   28.3795  -72.6968 C.3       0 UNK        -0.1998 
      2 C         -84.0470   27.9386  -72.9580 C.2       0 UNK         0.4909 
      3 O         -83.6536   27.7878  -74.1153 O.2       0 UNK        -0.5240 
      4 N         -83.2617   27.7407  -71.8922 N.am      1 UNK        -0.4739 
      5 CA        -81.8725   27.2736  -71.9518 C.3       1 UNK         0.0864 
      6 C6        -81.1237   27.4975  -70.6115 C.3       11 UNK        -0.0881 
      7 S7        -81.2034   29.2221  -70.0111 S.3       11 UNK        -0.2682 
      8 C8        -79.4378   29.6843  -69.8890 C.3       11 UNK         0.0289 
      9 C9        -78.7369   30.0604  -71.1979 C.ar      11 UNK        -0.0687 
     10 C10       -79.4118   30.1891  -72.4203 C.ar      11 UNK        -0.0823 
     11 C11       -78.7271   30.5528  -73.5838 C.ar      11 UNK        -0.0830 
     12 C12       -77.3586   30.8260  -73.5144 C.ar      11 UNK        -0.1021 
     13 C13       -76.6671   30.6924  -72.3105 C.ar      11 UNK        -0.0753 
     14 C14       -77.3606   30.3113  -71.1581 C.ar      11 UNK        -0.0933 
     15 C15       -75.1691   30.9537  -72.2729 C.3       11 UNK         0.0166 
     16 S16       -74.2492   29.6138  -73.0928 S.3       11 UNK        -0.2615 
     17 C17       -74.4707   28.2478  -71.9012 C.3       11 UNK        -0.0865 
     18 CA        -73.1258   27.5691  -71.5366 C.3       10 UNK         0.0862 
     19 C         -73.2957   26.5960  -70.3291 C.2       10 UNK         0.5551 
     20 N         -72.9326   25.3236  -70.4300 N.am      10 UNK        -0.7319 
     21 O         -73.7632   27.0109  -69.2716 O.2       10 UNK        -0.5018 
     22 N         -72.4898   27.0013  -72.7374 N.am      10 UNK        -0.4509 
     23 C         -71.2129   26.6121  -72.8413 C.2       10 UNK         0.4899 
     24 O         -70.3946   26.6765  -71.9243 O.2       10 UNK        -0.4839 
     25 CA        -70.7752   26.0492  -74.2004 C.3       9 UNK         0.0222 
     26 CB        -71.0292   24.5337  -74.2577 C.3       9 UNK        -0.1966 
     27 N         -71.4876   26.6923  -75.3030 N.am      9 UNK        -0.4218 
     28 C         -71.0675   27.7697  -75.9769 C.2       9 UNK         0.5020 
     29 O         -70.0072   28.3545  -75.7447 O.2       9 UNK        -0.5274 
     30 CA        -71.9955   28.2618  -77.1077 C.3       8 UNK         0.0270 
     31 CB        -71.2810   29.1762  -78.1250 C.3       8 UNK        -0.1976 
     32 N         -72.6953   27.1634  -77.7890 N.am      8 UNK        -0.4313 
     33 C         -72.1505   26.1249  -78.4450 C.2       8 UNK         0.5041 
     34 O         -70.9423   25.9961  -78.6467 O.2       8 UNK        -0.5577 
     35 CA        -73.1001   25.0119  -78.9303 C.3       7 UNK         0.0284 
     36 CB        -72.9387   23.7597  -78.0524 C.3       7 UNK        -0.1958 
     37 N         -74.5113   25.4030  -78.9386 N.am      7 UNK        -0.4454 
     38 C         -75.0645   26.2378  -79.8278 C.2       7 UNK         0.5089 
     39 O         -74.4619   26.7200  -80.7871 O.2       7 UNK        -0.5125 
     40 CA        -76.5297   26.6303  -79.5780 C.3       6 UNK         0.0408 
     41 CB        -77.4826   25.5865  -80.1820 C.3       6 UNK        -0.1791 
     42 N         -76.8411   26.8144  -78.1571 N.am      6 UNK        -0.4762 
     43 C         -76.3126   27.7607  -77.3653 C.2       6 UNK         0.5007 
     44 O         -75.4571   28.5652  -77.7338 O.2       6 UNK        -0.5032 
     45 CA        -76.7995   27.7738  -75.9029 C.3       5 UNK         0.0783 
     46 C46       -78.2845   28.2187  -75.8030 C.3       11 UNK        -0.0857 
     47 S47       -78.5666   29.9483  -76.3240 S.3       11 UNK        -0.2512 
     48 C48       -79.4799   30.6501  -74.9068 C.3       11 UNK         0.0225 
     49 N         -76.5939   26.4555  -75.2959 N.am      5 UNK        -0.4615 
     50 C         -75.4009   25.8884  -75.0538 C.2       4 UNK         0.5053 
     51 O         -74.3235   26.4707  -75.1788 O.2       4 UNK        -0.5105 
     52 CA        -75.3841   24.4111  -74.6144 C.3       4 UNK         0.0263 
     53 CB        -75.2603   24.3146  -73.0875 C.3       4 UNK        -0.1981 
     54 N         -76.5532   23.6453  -75.0477 N.am      4 UNK        -0.4224 
     55 C         -76.9421   23.4593  -76.3175 C.2       3 UNK         0.4895 
     56 O         -76.2774   23.8111  -77.2921 O.2       3 UNK        -0.5091 
     57 CA        -78.3381   22.8412  -76.5378 C.3       3 UNK         0.0250 
     58 CB        -78.2100   21.3570  -76.9144 C.3       3 UNK        -0.1996 
     59 N         -79.2603   22.9775  -75.3973 N.am      3 UNK        -0.4254 
     60 C         -79.6223   24.1359  -74.8247 C.2       2 UNK         0.5004 
     61 O         -79.2140   25.2375  -75.2032 O.2       2 UNK        -0.5226 
     62 CA        -80.5265   24.0500  -73.5879 C.3       2 UNK         0.0269 
     63 CB        -79.8615   23.2367  -72.4574 C.3       2 UNK        -0.1926 
     64 N         -80.7967   25.4086  -73.1218 N.am      2 UNK        -0.4687 
     65 C         -81.8178   25.7828  -72.3467 C.2       1 UNK         0.5165 
     66 O         -82.6693   25.0006  -71.9148 O.2       1 UNK        -0.5079 
     67 H67       -85.6845   28.4885  -71.6320 H         1 UNK         0.0900 
     68 H68       -86.1769   27.6477  -73.1035 H         1 UNK         0.0900 
     69 H69       -85.6708   29.3380  -73.1786 H         1 UNK         0.0900 
     70 H70       -83.6357   27.8713  -70.9633 H         1 UNK         0.2959 
     71 H71       -81.3646   27.8457  -72.7308 H         1 UNK         0.1079 
     72 H72       -81.5406   26.8591  -69.8297 H         1 UNK         0.0837 
     73 H73       -80.0778   27.2013  -70.7140 H         1 UNK         0.0837 
     74 H74       -79.3692   30.5402  -69.2161 H         1 UNK         0.0685 
     75 H75       -78.8933   28.8729  -69.4035 H         1 UNK         0.0685 
     76 H76       -80.4758   30.0156  -72.4784 H         1 UNK         0.1434 
     77 H77       -76.8193   31.1195  -74.4047 H         1 UNK         0.1329 
     78 H78       -76.8276   30.2153  -70.2218 H         1 UNK         0.1335 
     79 H79       -74.9540   31.8932  -72.7839 H         1 UNK         0.0680 
     80 H80       -74.8135   31.0736  -71.2483 H         1 UNK         0.0680 
     81 H81       -75.1681   27.5238  -72.3260 H         1 UNK         0.1032 
     82 H82       -74.9540   28.6361  -71.0035 H         1 UNK         0.1032 
     83 H83       -72.4565   28.3512  -71.1731 H         1 UNK         0.0461 
     84 H84       -73.0461   24.7147  -69.6352 H         1 UNK         0.3453 
     85 H85       -72.5037   24.9807  -71.2729 H         1 UNK         0.3453 
     86 H86       -73.0839   26.9362  -73.5552 H         1 UNK         0.2984 
     87 H87       -69.7019   26.2191  -74.3090 H         1 UNK         0.0554 
     88 H88       -72.0872   24.2926  -74.1496 H         1 UNK         0.0847 
     89 H89       -70.4927   24.0176  -73.4603 H         1 UNK         0.0847 
     90 H90       -70.6861   24.1119  -75.2028 H         1 UNK         0.0847 
     91 H91       -72.4232   26.3548  -75.5091 H         1 UNK         0.3141 
     92 H92       -72.7716   28.8541  -76.6199 H         1 UNK         0.0743 
     93 H93       -70.4498   28.6668  -78.6134 H         1 UNK         0.0784 
     94 H94       -71.9680   29.5177  -78.8994 H         1 UNK         0.0784 
     95 H95       -70.8770   30.0638  -77.6368 H         1 UNK         0.0784 
     96 H96       -73.7038   27.1844  -77.6955 H         1 UNK         0.3213 
     97 H97       -72.8092   24.7553  -79.9513 H         1 UNK         0.0855 
     98 H98       -73.1854   23.9656  -77.0112 H         1 UNK         0.0814 
     99 H99       -71.9110   23.3948  -78.0768 H         1 UNK         0.0814 
    100 H100      -73.5798   22.9471  -78.3949 H         1 UNK         0.0814 
    101 H101      -75.1124   24.9871  -78.2300 H         1 UNK         0.3105 
    102 H102      -76.7070   27.5835  -80.0804 H         1 UNK         0.0547 
    103 H103      -77.2881   25.4527  -81.2470 H         1 UNK         0.0837 
    104 H104      -77.3709   24.6113  -79.7066 H         1 UNK         0.0837 
    105 H105      -78.5238   25.8928  -80.0808 H         1 UNK         0.0837 
    106 H106      -77.4969   26.1626  -77.7508 H         1 UNK         0.3020 
    107 H107      -76.1849   28.4902  -75.3520 H         1 UNK         0.1245 
    108 H108      -78.6304   28.0931  -74.7763 H         1 UNK         0.0781 
    109 H109      -78.9290   27.5775  -76.4065 H         1 UNK         0.0781 
    110 H110      -80.4453   30.1456  -74.8387 H         1 UNK         0.0836 
    111 H111      -79.6935   31.6999  -75.1113 H         1 UNK         0.0836 
    112 H112      -77.4362   25.9011  -75.1669 H         1 UNK         0.3022 
    113 H113      -74.5042   23.9453  -75.0601 H         1 UNK         0.0747 
    114 H114      -75.1750   23.2788  -72.7583 H         1 UNK         0.0793 
    115 H115      -74.3688   24.8341  -72.7407 H         1 UNK         0.0793 
    116 H116      -76.1169   24.7610  -72.5807 H         1 UNK         0.0793 
    117 H117      -77.1645   23.3082  -74.3193 H         1 UNK         0.3047 
    118 H118      -78.7866   23.3703  -77.3813 H         1 UNK         0.0822 
    119 H119      -79.1763   20.9297  -77.1831 H         1 UNK         0.0807 
    120 H120      -77.7957   20.7666  -76.0961 H         1 UNK         0.0807 
    121 H121      -77.5518   21.2278  -77.7751 H         1 UNK         0.0807 
    122 H122      -79.6355   22.1171  -75.0238 H         1 UNK         0.2946 
    123 H123      -81.4645   23.5768  -73.8875 H         1 UNK         0.1144 
    124 H124      -79.6717   22.2066  -72.7603 H         1 UNK         0.0793 
    125 H125      -80.4976   23.1906  -71.5733 H         1 UNK         0.0793 
    126 H126      -78.9080   23.6723  -72.1558 H         1 UNK         0.0793 
    127 H127      -80.1652   26.1002  -73.5074 H         1 UNK         0.2896 
@<TRIPOS>BOND
     1    1    2 1    
     2    1   67 1    
     3    1   68 1    
     4    1   69 1    
     5    2    3 2    
     6    2    4 am   BACKBONE|DICT|INTERRES
     7    4    5 1    
     8    4   70 1    
     9    5    6 1    
    10    5   65 1    
    11    5   71 1    
    12    6    7 1    
    13    6   72 1    
    14    6   73 1    
    15    7    8 1    
    16    8    9 1    
    17    8   74 1    
    18    8   75 1    
    19    9   10 ar   
    20    9   14 ar   
    21   10   11 ar   
    22   10   76 1    
    23   11   12 ar   
    24   11   48 1    
    25   12   13 ar   
    26   12   77 1    
    27   13   14 ar   
    28   13   15 1    
    29   14   78 1    
    30   15   16 1    
    31   15   79 1    
    32   15   80 1    
    33   16   17 1    
    34   17   18 1    
    35   17   81 1    
    36   17   82 1    
    37   18   19 1    
    38   18   22 1    
    39   18   83 1    
    40   19   20 am   BACKBONE|DICT|INTERRES
    41   19   21 2    
    42   20   84 1    
    43   20   85 1    
    44   22   23 am   BACKBONE|DICT|INTERRES
    45   22   86 1    
    46   23   24 2    
    47   23   25 1    
    48   25   26 1    
    49   25   27 1    
    50   25   87 1    
    51   26   88 1    
    52   26   89 1    
    53   26   90 1    
    54   27   28 am   BACKBONE|DICT|INTERRES
    55   27   91 1    
    56   28   29 2    
    57   28   30 1    
    58   30   31 1    
    59   30   32 1    
    60   30   92 1    
    61   31   93 1    
    62   31   94 1    
    63   31   95 1    
    64   32   33 am   BACKBONE|DICT|INTERRES
    65   32   96 1    
    66   33   34 2    
    67   33   35 1    
    68   35   36 1    
    69   35   37 1    
    70   35   97 1    
    71   36   98 1    
    72   36   99 1    
    73   36  100 1    
    74   37   38 am   BACKBONE|DICT|INTERRES
    75   37  101 1    
    76   38   39 2    
    77   38   40 1    
    78   40   41 1    
    79   40   42 1    
    80   40  102 1    
    81   41  103 1    
    82   41  104 1    
    83   41  105 1    
    84   42   43 am   BACKBONE|DICT|INTERRES
    85   42  106 1    
    86   43   44 2    
    87   43   45 1    
    88   45   46 1    
    89   45   49 1    
    90   45  107 1    
    91   46   47 1    
    92   46  108 1    
    93   46  109 1    
    94   47   48 1    
    95   48  110 1    
    96   48  111 1    
    97   49   50 am   BACKBONE|DICT|INTERRES
    98   49  112 1    
    99   50   51 2    
   100   50   52 1    
   101   52   53 1    
   102   52   54 1    
   103   52  113 1    
   104   53  114 1    
   105   53  115 1    
   106   53  116 1    
   107   54   55 am   BACKBONE|DICT|INTERRES
   108   54  117 1    
   109   55   56 2    
   110   55   57 1    
   111   57   58 1    
   112   57   59 1    
   113   57  118 1    
   114   58  119 1    
   115   58  120 1    
   116   58  121 1    
   117   59   60 am   BACKBONE|DICT|INTERRES
   118   59  122 1    
   119   60   61 2    
   120   60   62 1    
   121   62   63 1    
   122   62   64 1    
   123   62  123 1    
   124   63  124 1    
   125   63  125 1    
   126   63  126 1    
   127   64   65 am   BACKBONE|DICT|INTERRES
   128   64  127 1    
   129   65   66 2    
@<TRIPOS>SUBSTRUCTURE
     1 UNK         1 GROUP             0       ****    0 ROOT    
