@<TRIPOS>MOLECULE
3R135
127   129    1
SMALL
USER_CHARGES


@<TRIPOS>ATOM
      1 CA        -75.4221   23.5300  -71.4056 C.3       0 UNK        -0.1998 
      2 C         -76.8234   23.8912  -70.9377 C.2       0 UNK         0.4909 
      3 O         -77.4232   23.1462  -70.1609 O.2       0 UNK        -0.5240 
      4 N         -77.3491   25.0302  -71.4030 N.am      1 UNK        -0.4739 
      5 CA        -78.6980   25.5283  -71.1167 C.3       1 UNK         0.0864 
      6 C6        -78.8231   27.0411  -71.4216 C.3       11 UNK        -0.0881 
      7 S7        -77.7600   28.0587  -70.3445 S.3       11 UNK        -0.2682 
      8 C8        -78.5556   29.6875  -70.5125 C.3       11 UNK         0.0289 
      9 C9        -78.5068   30.1902  -71.9477 C.ar      11 UNK        -0.0687 
     10 C10       -79.6401   30.1175  -72.7625 C.ar      11 UNK        -0.0823 
     11 C11       -79.5921   30.5601  -74.0876 C.ar      11 UNK        -0.0830 
     12 C12       -78.4048   31.1032  -74.5890 C.ar      11 UNK        -0.1021 
     13 C13       -77.2555   31.1467  -73.7934 C.ar      11 UNK        -0.0753 
     14 C14       -77.3179   30.7055  -72.4686 C.ar      11 UNK        -0.0933 
     15 C15       -75.9339   31.6347  -74.3696 C.3       11 UNK         0.0166 
     16 S16       -75.2641   30.5118  -75.6441 S.3       11 UNK        -0.2615 
     17 C17       -75.2953   28.8744  -74.8270 C.3       11 UNK        -0.0865 
     18 CA        -74.3224   28.7232  -73.6287 C.3       10 UNK         0.0862 
     19 C         -74.4421   27.3132  -72.9758 C.2       10 UNK         0.5551 
     20 N         -73.3550   26.6681  -72.5679 N.am      10 UNK        -0.7319 
     21 O         -75.5439   26.7872  -72.8361 O.2       10 UNK        -0.5018 
     22 N         -72.9448   29.0588  -74.0099 N.am      10 UNK        -0.4509 
     23 C         -72.1127   29.8540  -73.3266 C.2       10 UNK         0.4899 
     24 O         -72.4426   30.4852  -72.3211 O.2       10 UNK        -0.4839 
     25 CA        -70.6621   29.9599  -73.8538 C.3       9 UNK         0.0222 
     26 CB        -69.6565   30.3523  -72.7502 C.3       9 UNK        -0.1966 
     27 N         -70.2049   28.7585  -74.5691 N.am      9 UNK        -0.4218 
     28 C         -70.1655   27.5033  -74.0942 C.2       9 UNK         0.5020 
     29 O         -70.4259   27.2099  -72.9253 O.2       9 UNK        -0.5274 
     30 CA        -69.8325   26.3841  -75.1063 C.3       8 UNK         0.0270 
     31 CB        -70.3802   25.0138  -74.6518 C.3       8 UNK        -0.1976 
     32 N         -70.2588   26.6491  -76.4924 N.am      8 UNK        -0.4313 
     33 C         -71.4879   26.9813  -76.9196 C.2       8 UNK         0.5041 
     34 O         -72.4192   27.2571  -76.1610 O.2       8 UNK        -0.5577 
     35 CA        -71.6721   27.0496  -78.4505 C.3       7 UNK         0.0284 
     36 CB        -71.4375   25.6734  -79.1115 C.3       7 UNK        -0.1958 
     37 N         -72.9652   27.6150  -78.8678 N.am      7 UNK        -0.4454 
     38 C         -74.1912   27.1071  -78.6735 C.2       7 UNK         0.5089 
     39 O         -74.4352   26.0181  -78.1458 O.2       7 UNK        -0.5125 
     40 CA        -75.3590   27.9613  -79.1764 C.3       6 UNK         0.0408 
     41 CB        -75.8014   27.5222  -80.5841 C.3       6 UNK        -0.1791 
     42 N         -76.4508   27.8099  -78.2241 N.am      6 UNK        -0.4762 
     43 C         -77.4900   28.6373  -78.0670 C.2       6 UNK         0.5007 
     44 O         -77.6937   29.6081  -78.7980 O.2       6 UNK        -0.5032 
     45 CA        -78.4285   28.3685  -76.8669 C.3       5 UNK         0.0783 
     46 C46       -79.8915   28.8193  -77.1335 C.3       11 UNK        -0.0857 
     47 S47       -80.9585   28.7322  -75.6541 S.3       11 UNK        -0.2512 
     48 C48       -80.8203   30.4204  -74.9750 C.3       11 UNK         0.0225 
     49 N         -78.2947   27.0142  -76.3087 N.am      5 UNK        -0.4615 
     50 C         -78.6384   25.8593  -76.8925 C.2       4 UNK         0.5053 
     51 O         -79.1651   25.7808  -78.0025 O.2       4 UNK        -0.5105 
     52 CA        -78.3129   24.5700  -76.1194 C.3       4 UNK         0.0263 
     53 CB        -77.3765   24.7769  -74.9102 C.3       4 UNK        -0.1981 
     54 N         -79.5562   23.9544  -75.6623 N.am      4 UNK        -0.4224 
     55 C         -80.2071   22.9742  -76.3056 C.2       3 UNK         0.4895 
     56 O         -79.8050   22.4595  -77.3512 O.2       3 UNK        -0.5091 
     57 CA        -81.5335   22.4845  -75.6835 C.3       3 UNK         0.0250 
     58 CB        -81.8712   21.0271  -76.0674 C.3       3 UNK        -0.1996 
     59 N         -81.6145   22.6712  -74.2284 N.am      3 UNK        -0.4254 
     60 C         -80.8141   22.1375  -73.2931 C.2       2 UNK         0.5004 
     61 O         -79.8837   21.3629  -73.5252 O.2       2 UNK        -0.5226 
     62 CA        -81.0872   22.5800  -71.8457 C.3       2 UNK         0.0269 
     63 CB        -81.1692   21.3709  -70.8979 C.3       2 UNK        -0.1926 
     64 N         -80.0676   23.5079  -71.3508 N.am      2 UNK        -0.4687 
     65 C         -79.7634   24.7040  -71.8728 C.2       1 UNK         0.5165 
     66 O         -80.2811   25.1532  -72.8990 O.2       1 UNK        -0.5079 
     67 H67       -74.6987   23.7309  -70.6162 H         1 UNK         0.0900 
     68 H68       -75.1359   24.0971  -72.2910 H         1 UNK         0.0900 
     69 H69       -75.3704   22.4709  -71.6567 H         1 UNK         0.0900 
     70 H70       -76.7788   25.6345  -71.9918 H         1 UNK         0.2959 
     71 H71       -78.8910   25.3944  -70.0497 H         1 UNK         0.1079 
     72 H72       -78.5666   27.2504  -72.4622 H         1 UNK         0.0837 
     73 H73       -79.8558   27.3687  -71.2867 H         1 UNK         0.0837 
     74 H74       -79.5852   29.6279  -70.1562 H         1 UNK         0.0685 
     75 H75       -78.0471   30.3989  -69.8601 H         1 UNK         0.0685 
     76 H76       -80.5567   29.6958  -72.3727 H         1 UNK         0.1434 
     77 H77       -78.3571   31.4439  -75.6146 H         1 UNK         0.1329 
     78 H78       -76.4354   30.7385  -71.8444 H         1 UNK         0.1335 
     79 H79       -75.1878   31.7559  -73.5826 H         1 UNK         0.0680 
     80 H80       -76.0763   32.6226  -74.8094 H         1 UNK         0.0680 
     81 H81       -76.3167   28.6678  -74.5059 H         1 UNK         0.1032 
     82 H82       -75.0609   28.1244  -75.5847 H         1 UNK         0.1032 
     83 H83       -74.6554   29.4149  -72.8550 H         1 UNK         0.0461 
     84 H84       -73.4518   25.7609  -72.1456 H         1 UNK         0.3453 
     85 H85       -72.4314   27.0676  -72.6909 H         1 UNK         0.3453 
     86 H86       -72.5937   28.5308  -74.8072 H         1 UNK         0.2984 
     87 H87       -70.6717   30.7640  -74.5908 H         1 UNK         0.0554 
     88 H88       -69.9120   31.3175  -72.3111 H         1 UNK         0.0847 
     89 H89       -68.6446   30.4373  -73.1461 H         1 UNK         0.0847 
     90 H90       -69.6398   29.6221  -71.9404 H         1 UNK         0.0847 
     91 H91       -69.9928   28.8875  -75.5485 H         1 UNK         0.3141 
     92 H92       -68.7439   26.3154  -75.1266 H         1 UNK         0.0743 
     93 H93       -71.4676   25.0270  -74.5644 H         1 UNK         0.0784 
     94 H94       -70.1105   24.2250  -75.3540 H         1 UNK         0.0784 
     95 H95       -69.9776   24.7286  -73.6790 H         1 UNK         0.0784 
     96 H96       -69.5462   26.4946  -77.1930 H         1 UNK         0.3213 
     97 H97       -70.9134   27.7376  -78.8270 H         1 UNK         0.0855 
     98 H98       -72.0952   24.9070  -78.6999 H         1 UNK         0.0814 
     99 H99       -70.4134   25.3293  -78.9644 H         1 UNK         0.0814 
    100 H100      -71.6074   25.7161  -80.1874 H         1 UNK         0.0814 
    101 H101      -72.9076   28.5301  -79.2927 H         1 UNK         0.3105 
    102 H102      -75.0521   29.0093  -79.1975 H         1 UNK         0.0547 
    103 H103      -74.9784   27.6025  -81.2952 H         1 UNK         0.0837 
    104 H104      -76.1410   26.4857  -80.5921 H         1 UNK         0.0837 
    105 H105      -76.6144   28.1432  -80.9600 H         1 UNK         0.0837 
    106 H106      -76.3369   27.0261  -77.5936 H         1 UNK         0.3020 
    107 H107      -78.0373   29.0202  -76.0916 H         1 UNK         0.1245 
    108 H108      -80.3410   28.2020  -77.9126 H         1 UNK         0.0781 
    109 H109      -79.9214   29.8413  -77.5147 H         1 UNK         0.0781 
    110 H110      -81.7154   30.6343  -74.3888 H         1 UNK         0.0836 
    111 H111      -80.8075   31.1568  -75.7798 H         1 UNK         0.0836 
    112 H112      -77.8939   26.9650  -75.3837 H         1 UNK         0.3022 
    113 H113      -77.7984   23.9044  -76.8157 H         1 UNK         0.0747 
    114 H114      -77.1618   23.8281  -74.4178 H         1 UNK         0.0793 
    115 H115      -76.4180   25.1986  -75.2175 H         1 UNK         0.0793 
    116 H116      -77.8089   25.4402  -74.1620 H         1 UNK         0.0793 
    117 H117      -79.9646   24.3376  -74.8158 H         1 UNK         0.3047 
    118 H118      -82.3092   23.1215  -76.1111 H         1 UNK         0.0822 
    119 H119      -82.8186   20.7106  -75.6313 H         1 UNK         0.0807 
    120 H120      -81.0995   20.3321  -75.7348 H         1 UNK         0.0807 
    121 H121      -81.9626   20.9167  -77.1486 H         1 UNK         0.0807 
    122 H122      -82.3179   23.3302  -73.9225 H         1 UNK         0.2946 
    123 H123      -82.0493   23.0961  -71.8120 H         1 UNK         0.1144 
    124 H124      -80.2171   20.8419  -70.8346 H         1 UNK         0.0793 
    125 H125      -81.9176   20.6555  -71.2416 H         1 UNK         0.0793 
    126 H126      -81.4511   21.6747  -69.8896 H         1 UNK         0.0793 
    127 H127      -79.4887   23.1803  -70.5854 H         1 UNK         0.2896 
@<TRIPOS>BOND
     1    1    2 1    
     2    1   67 1    
     3    1   68 1    
     4    1   69 1    
     5    2    3 2    
     6    2    4 am   BACKBONE|DICT|INTERRES
     7    4    5 1    
     8    4   70 1    
     9    5    6 1    
    10    5   65 1    
    11    5   71 1    
    12    6    7 1    
    13    6   72 1    
    14    6   73 1    
    15    7    8 1    
    16    8    9 1    
    17    8   74 1    
    18    8   75 1    
    19    9   10 ar   
    20    9   14 ar   
    21   10   11 ar   
    22   10   76 1    
    23   11   12 ar   
    24   11   48 1    
    25   12   13 ar   
    26   12   77 1    
    27   13   14 ar   
    28   13   15 1    
    29   14   78 1    
    30   15   16 1    
    31   15   79 1    
    32   15   80 1    
    33   16   17 1    
    34   17   18 1    
    35   17   81 1    
    36   17   82 1    
    37   18   19 1    
    38   18   22 1    
    39   18   83 1    
    40   19   20 am   BACKBONE|DICT|INTERRES
    41   19   21 2    
    42   20   84 1    
    43   20   85 1    
    44   22   23 am   BACKBONE|DICT|INTERRES
    45   22   86 1    
    46   23   24 2    
    47   23   25 1    
    48   25   26 1    
    49   25   27 1    
    50   25   87 1    
    51   26   88 1    
    52   26   89 1    
    53   26   90 1    
    54   27   28 am   BACKBONE|DICT|INTERRES
    55   27   91 1    
    56   28   29 2    
    57   28   30 1    
    58   30   31 1    
    59   30   32 1    
    60   30   92 1    
    61   31   93 1    
    62   31   94 1    
    63   31   95 1    
    64   32   33 am   BACKBONE|DICT|INTERRES
    65   32   96 1    
    66   33   34 2    
    67   33   35 1    
    68   35   36 1    
    69   35   37 1    
    70   35   97 1    
    71   36   98 1    
    72   36   99 1    
    73   36  100 1    
    74   37   38 am   BACKBONE|DICT|INTERRES
    75   37  101 1    
    76   38   39 2    
    77   38   40 1    
    78   40   41 1    
    79   40   42 1    
    80   40  102 1    
    81   41  103 1    
    82   41  104 1    
    83   41  105 1    
    84   42   43 am   BACKBONE|DICT|INTERRES
    85   42  106 1    
    86   43   44 2    
    87   43   45 1    
    88   45   46 1    
    89   45   49 1    
    90   45  107 1    
    91   46   47 1    
    92   46  108 1    
    93   46  109 1    
    94   47   48 1    
    95   48  110 1    
    96   48  111 1    
    97   49   50 am   BACKBONE|DICT|INTERRES
    98   49  112 1    
    99   50   51 2    
   100   50   52 1    
   101   52   53 1    
   102   52   54 1    
   103   52  113 1    
   104   53  114 1    
   105   53  115 1    
   106   53  116 1    
   107   54   55 am   BACKBONE|DICT|INTERRES
   108   54  117 1    
   109   55   56 2    
   110   55   57 1    
   111   57   58 1    
   112   57   59 1    
   113   57  118 1    
   114   58  119 1    
   115   58  120 1    
   116   58  121 1    
   117   59   60 am   BACKBONE|DICT|INTERRES
   118   59  122 1    
   119   60   61 2    
   120   60   62 1    
   121   62   63 1    
   122   62   64 1    
   123   62  123 1    
   124   63  124 1    
   125   63  125 1    
   126   63  126 1    
   127   64   65 am   BACKBONE|DICT|INTERRES
   128   64  127 1    
   129   65   66 2    
@<TRIPOS>SUBSTRUCTURE
     1 UNK         1 GROUP             0       ****    0 ROOT    
