@<TRIPOS>MOLECULE
3R135
127   129    1
SMALL
USER_CHARGES


@<TRIPOS>ATOM
      1 CA        -84.1933   27.5896  -70.8503 C.3       0 UNK        -0.1998 
      2 C         -82.9470   27.2916  -71.6693 C.2       0 UNK         0.4909 
      3 O         -82.5676   28.0921  -72.5239 O.2       0 UNK        -0.5240 
      4 N         -82.3114   26.1374  -71.4306 N.am      1 UNK        -0.4739 
      5 CA        -81.0936   25.6727  -72.1088 C.3       1 UNK         0.0864 
      6 C6        -80.2077   24.8373  -71.1366 C.3       11 UNK        -0.0881 
      7 S7        -78.4227   25.2062  -71.2678 S.3       11 UNK        -0.2682 
      8 C8        -78.2268   26.6988  -70.2310 C.3       11 UNK         0.0289 
      9 C9        -77.6762   27.8406  -71.0714 C.ar      11 UNK        -0.0687 
     10 C10       -78.5315   28.5345  -71.9248 C.ar      11 UNK        -0.0823 
     11 C11       -78.0285   29.4343  -72.8623 C.ar      11 UNK        -0.0830 
     12 C12       -76.6653   29.7410  -72.8593 C.ar      11 UNK        -0.1021 
     13 C13       -75.8066   29.1263  -71.9398 C.ar      11 UNK        -0.0753 
     14 C14       -76.3140   28.1584  -71.0630 C.ar      11 UNK        -0.0933 
     15 C15       -74.3202   29.4534  -71.9435 C.3       11 UNK         0.0166 
     16 S16       -73.9981   31.2162  -71.6348 S.3       11 UNK        -0.2615 
     17 C17       -72.1728   31.2515  -71.6244 C.3       11 UNK        -0.0865 
     18 CA        -71.5785   31.5144  -73.0325 C.3       10 UNK         0.0862 
     19 C         -70.1048   31.9918  -72.9374 C.2       10 UNK         0.5551 
     20 N         -69.8824   33.2959  -72.8513 N.am      10 UNK        -0.7319 
     21 O         -69.1684   31.1954  -72.8989 O.2       10 UNK        -0.5018 
     22 N         -71.6935   30.3254  -73.8864 N.am      10 UNK        -0.4509 
     23 C         -71.7234   30.3355  -75.2210 C.2       10 UNK         0.4899 
     24 O         -71.7541   31.3692  -75.8900 O.2       10 UNK        -0.4839 
     25 CA        -71.7280   28.9808  -75.9575 C.3       9 UNK         0.0222 
     26 CB        -70.3239   28.6491  -76.4986 C.3       9 UNK        -0.1966 
     27 N         -72.2909   27.8328  -75.2276 N.am      9 UNK        -0.4218 
     28 C         -71.8279   27.2066  -74.1343 C.2       9 UNK         0.5020 
     29 O         -70.8864   27.6182  -73.4563 O.2       9 UNK        -0.5274 
     30 CA        -72.5249   25.8979  -73.7197 C.3       8 UNK         0.0270 
     31 CB        -73.6365   26.1536  -72.6927 C.3       8 UNK        -0.1976 
     32 N         -73.0816   25.1581  -74.8526 N.am      8 UNK        -0.4313 
     33 C         -72.3522   24.4782  -75.7481 C.2       8 UNK         0.5041 
     34 O         -71.1247   24.3844  -75.7078 O.2       8 UNK        -0.5577 
     35 CA        -73.1244   23.7883  -76.8830 C.3       7 UNK         0.0284 
     36 CB        -73.7915   22.4953  -76.3851 C.3       7 UNK        -0.1958 
     37 N         -74.1301   24.6727  -77.4734 N.am      7 UNK        -0.4454 
     38 C         -73.8489   25.6993  -78.2880 C.2       7 UNK         0.5089 
     39 O         -72.7140   25.9838  -78.6702 O.2       7 UNK        -0.5125 
     40 CA        -75.0356   26.5598  -78.7538 C.3       6 UNK         0.0408 
     41 CB        -75.6229   26.0037  -80.0603 C.3       6 UNK        -0.1791 
     42 N         -76.0980   26.6630  -77.7512 N.am      6 UNK        -0.4762 
     43 C         -75.9912   27.3389  -76.5967 C.2       6 UNK         0.5007 
     44 O         -74.9799   27.9492  -76.2523 O.2       6 UNK        -0.5032 
     45 CA        -77.2107   27.2873  -75.6530 C.3       5 UNK         0.0783 
     46 C46       -78.2356   28.3603  -76.1109 C.3       11 UNK        -0.0857 
     47 S47       -79.6197   28.6507  -74.9629 S.3       11 UNK        -0.2512 
     48 C48       -78.9698   29.9971  -73.9128 C.3       11 UNK         0.0225 
     49 N         -77.7621   25.9230  -75.5622 N.am      5 UNK        -0.4615 
     50 C         -77.0404   24.8582  -75.1605 C.2       4 UNK         0.5053 
     51 O         -75.8872   24.9511  -74.7410 O.2       4 UNK        -0.5105 
     52 CA        -77.6236   23.4410  -75.3110 C.3       4 UNK         0.0263 
     53 CB        -77.8225   22.7571  -73.9510 C.3       4 UNK        -0.1981 
     54 N         -78.8569   23.3789  -76.0904 N.am      4 UNK        -0.4224 
     55 C         -78.9101   23.5183  -77.4236 C.2       3 UNK         0.4895 
     56 O         -77.9159   23.6939  -78.1299 O.2       3 UNK        -0.5091 
     57 CA        -80.3040   23.4953  -78.0791 C.3       3 UNK         0.0250 
     58 CB        -80.6127   22.0956  -78.6340 C.3       3 UNK        -0.1996 
     59 N         -81.3912   23.9135  -77.1860 N.am      3 UNK        -0.4254 
     60 C         -81.4731   25.1134  -76.5941 C.2       2 UNK         0.5004 
     61 O         -80.6358   26.0013  -76.7567 O.2       2 UNK        -0.5226 
     62 CA        -82.6555   25.3686  -75.6419 C.3       2 UNK         0.0269 
     63 CB        -83.6826   24.2151  -75.5663 C.3       2 UNK        -0.1926 
     64 N         -82.1861   25.7322  -74.3005 N.am      2 UNK        -0.4687 
     65 C         -81.4275   25.0050  -73.4653 C.2       1 UNK         0.5165 
     66 O         -81.0335   23.8670  -73.7251 O.2       1 UNK        -0.5079 
     67 H67       -84.4103   26.7973  -70.1343 H         1 UNK         0.0900 
     68 H68       -84.0644   28.5200  -70.2979 H         1 UNK         0.0900 
     69 H69       -85.0559   27.6997  -71.5070 H         1 UNK         0.0900 
     70 H70       -82.6978   25.4989  -70.7492 H         1 UNK         0.2959 
     71 H71       -80.5224   26.5495  -72.3983 H         1 UNK         0.1079 
     72 H72       -80.3561   23.7649  -71.2742 H         1 UNK         0.0837 
     73 H73       -80.4912   25.0219  -70.0990 H         1 UNK         0.0837 
     74 H74       -79.1800   26.9913  -69.7882 H         1 UNK         0.0685 
     75 H75       -77.5548   26.4733  -69.4016 H         1 UNK         0.0685 
     76 H76       -79.5895   28.3287  -71.9180 H         1 UNK         0.1434 
     77 H77       -76.2661   30.4437  -73.5782 H         1 UNK         0.1329 
     78 H78       -75.6462   27.6308  -70.3958 H         1 UNK         0.1335 
     79 H79       -73.9100   29.1736  -72.9130 H         1 UNK         0.0680 
     80 H80       -73.7935   28.8669  -71.1901 H         1 UNK         0.0680 
     81 H81       -71.8843   32.0470  -70.9342 H         1 UNK         0.1032 
     82 H82       -71.7763   30.3296  -71.1946 H         1 UNK         0.1032 
     83 H83       -72.1534   32.3206  -73.4938 H         1 UNK         0.0461 
     84 H84       -70.6436   33.9571  -72.8720 H         1 UNK         0.3453 
     85 H85       -68.9335   33.6277  -72.7731 H         1 UNK         0.3453 
     86 H86       -71.5304   29.4286  -73.4403 H         1 UNK         0.2984 
     87 H87       -72.3836   29.1114  -76.8199 H         1 UNK         0.0554 
     88 H88       -69.9507   29.4527  -77.1349 H         1 UNK         0.0847 
     89 H89       -70.3370   27.7393  -77.0995 H         1 UNK         0.0847 
     90 H90       -69.6006   28.5110  -75.6943 H         1 UNK         0.0847 
     91 H91       -73.1581   27.4859  -75.6276 H         1 UNK         0.3141 
     92 H92       -71.7710   25.2668  -73.2443 H         1 UNK         0.0743 
     93 H93       -74.4378   26.7635  -73.1110 H         1 UNK         0.0784 
     94 H94       -74.0814   25.2187  -72.3509 H         1 UNK         0.0784 
     95 H95       -73.2445   26.6627  -71.8124 H         1 UNK         0.0784 
     96 H96       -74.0990   25.1372  -74.9242 H         1 UNK         0.3213 
     97 H97       -72.4073   23.5190  -77.6619 H         1 UNK         0.0855 
     98 H98       -74.4825   22.6821  -75.5629 H         1 UNK         0.0814 
     99 H99       -73.0423   21.7910  -76.0212 H         1 UNK         0.0814 
    100 H100      -74.3425   21.9974  -77.1832 H         1 UNK         0.0814 
    101 H101      -75.0923   24.5257  -77.2062 H         1 UNK         0.3105 
    102 H102      -74.6578   27.5654  -78.9513 H         1 UNK         0.0547 
    103 H103      -74.8564   25.9325  -80.8334 H         1 UNK         0.0837 
    104 H104      -76.0415   25.0055  -79.9235 H         1 UNK         0.0837 
    105 H105      -76.4120   26.6483  -80.4474 H         1 UNK         0.0837 
    106 H106      -76.9539   26.1581  -77.9398 H         1 UNK         0.3020 
    107 H107      -76.8505   27.5509  -74.6568 H         1 UNK         0.1245 
    108 H108      -78.6669   28.0777  -77.0732 H         1 UNK         0.0781 
    109 H109      -77.7406   29.3188  -76.2810 H         1 UNK         0.0781 
    110 H110      -79.8051   30.4918  -73.4149 H         1 UNK         0.0836 
    111 H111      -78.4808   30.7559  -74.5254 H         1 UNK         0.0836 
    112 H112      -78.7113   25.7982  -75.8982 H         1 UNK         0.3022 
    113 H113      -76.8720   22.8596  -75.8485 H         1 UNK         0.0747 
    114 H114      -78.1064   21.7116  -74.0706 H         1 UNK         0.0793 
    115 H115      -76.9042   22.7783  -73.3624 H         1 UNK         0.0793 
    116 H116      -78.5941   23.2462  -73.3619 H         1 UNK         0.0793 
    117 H117      -79.7202   23.2858  -75.5689 H         1 UNK         0.3047 
    118 H118      -80.2771   24.1978  -78.9148 H         1 UNK         0.0822 
    119 H119      -81.5528   22.0847  -79.1859 H         1 UNK         0.0807 
    120 H120      -80.6793   21.3515  -77.8392 H         1 UNK         0.0807 
    121 H121      -79.8320   21.7681  -79.3224 H         1 UNK         0.0807 
    122 H122      -82.1091   23.2310  -76.9898 H         1 UNK         0.2946 
    123 H123      -83.1708   26.2454  -76.0378 H         1 UNK         0.1144 
    124 H124      -84.5148   24.4798  -74.9137 H         1 UNK         0.0793 
    125 H125      -83.2467   23.2932  -75.1798 H         1 UNK         0.0793 
    126 H126      -84.1085   23.9991  -76.5471 H         1 UNK         0.0793 
    127 H127      -82.4215   26.6707  -73.9921 H         1 UNK         0.2896 
@<TRIPOS>BOND
     1    1    2 1    
     2    1   67 1    
     3    1   68 1    
     4    1   69 1    
     5    2    3 2    
     6    2    4 am   BACKBONE|DICT|INTERRES
     7    4    5 1    
     8    4   70 1    
     9    5    6 1    
    10    5   65 1    
    11    5   71 1    
    12    6    7 1    
    13    6   72 1    
    14    6   73 1    
    15    7    8 1    
    16    8    9 1    
    17    8   74 1    
    18    8   75 1    
    19    9   10 ar   
    20    9   14 ar   
    21   10   11 ar   
    22   10   76 1    
    23   11   12 ar   
    24   11   48 1    
    25   12   13 ar   
    26   12   77 1    
    27   13   14 ar   
    28   13   15 1    
    29   14   78 1    
    30   15   16 1    
    31   15   79 1    
    32   15   80 1    
    33   16   17 1    
    34   17   18 1    
    35   17   81 1    
    36   17   82 1    
    37   18   19 1    
    38   18   22 1    
    39   18   83 1    
    40   19   20 am   BACKBONE|DICT|INTERRES
    41   19   21 2    
    42   20   84 1    
    43   20   85 1    
    44   22   23 am   BACKBONE|DICT|INTERRES
    45   22   86 1    
    46   23   24 2    
    47   23   25 1    
    48   25   26 1    
    49   25   27 1    
    50   25   87 1    
    51   26   88 1    
    52   26   89 1    
    53   26   90 1    
    54   27   28 am   BACKBONE|DICT|INTERRES
    55   27   91 1    
    56   28   29 2    
    57   28   30 1    
    58   30   31 1    
    59   30   32 1    
    60   30   92 1    
    61   31   93 1    
    62   31   94 1    
    63   31   95 1    
    64   32   33 am   BACKBONE|DICT|INTERRES
    65   32   96 1    
    66   33   34 2    
    67   33   35 1    
    68   35   36 1    
    69   35   37 1    
    70   35   97 1    
    71   36   98 1    
    72   36   99 1    
    73   36  100 1    
    74   37   38 am   BACKBONE|DICT|INTERRES
    75   37  101 1    
    76   38   39 2    
    77   38   40 1    
    78   40   41 1    
    79   40   42 1    
    80   40  102 1    
    81   41  103 1    
    82   41  104 1    
    83   41  105 1    
    84   42   43 am   BACKBONE|DICT|INTERRES
    85   42  106 1    
    86   43   44 2    
    87   43   45 1    
    88   45   46 1    
    89   45   49 1    
    90   45  107 1    
    91   46   47 1    
    92   46  108 1    
    93   46  109 1    
    94   47   48 1    
    95   48  110 1    
    96   48  111 1    
    97   49   50 am   BACKBONE|DICT|INTERRES
    98   49  112 1    
    99   50   51 2    
   100   50   52 1    
   101   52   53 1    
   102   52   54 1    
   103   52  113 1    
   104   53  114 1    
   105   53  115 1    
   106   53  116 1    
   107   54   55 am   BACKBONE|DICT|INTERRES
   108   54  117 1    
   109   55   56 2    
   110   55   57 1    
   111   57   58 1    
   112   57   59 1    
   113   57  118 1    
   114   58  119 1    
   115   58  120 1    
   116   58  121 1    
   117   59   60 am   BACKBONE|DICT|INTERRES
   118   59  122 1    
   119   60   61 2    
   120   60   62 1    
   121   62   63 1    
   122   62   64 1    
   123   62  123 1    
   124   63  124 1    
   125   63  125 1    
   126   63  126 1    
   127   64   65 am   BACKBONE|DICT|INTERRES
   128   64  127 1    
   129   65   66 2    
@<TRIPOS>SUBSTRUCTURE
     1 UNK         1 GROUP             0       ****    0 ROOT    
