@<TRIPOS>MOLECULE
3R135
127   129    1
SMALL
USER_CHARGES


@<TRIPOS>ATOM
      1 CA        -79.9927   24.2972  -69.3232 C.3       0 UNK        -0.1998 
      2 C         -79.1758   25.4463  -69.9066 C.2       0 UNK         0.4909 
      3 O         -78.1460   25.8026  -69.3386 O.2       0 UNK        -0.5240 
      4 N         -79.5824   26.0495  -71.0289 N.am      1 UNK        -0.4739 
      5 CA        -80.7670   25.7502  -71.8333 C.3       1 UNK         0.0864 
      6 C6        -82.0492   26.4408  -71.2758 C.3       11 UNK        -0.0881 
      7 S7        -82.3941   28.1588  -71.8029 S.3       11 UNK        -0.2682 
      8 C8        -81.2916   29.1459  -70.7376 C.3       11 UNK         0.0289 
      9 C9        -79.9741   29.4865  -71.4249 C.ar      11 UNK        -0.0687 
     10 C10       -79.9744   30.1469  -72.6589 C.ar      11 UNK        -0.0823 
     11 C11       -78.7746   30.4778  -73.2960 C.ar      11 UNK        -0.0830 
     12 C12       -77.5643   30.1675  -72.6695 C.ar      11 UNK        -0.1021 
     13 C13       -77.5480   29.4960  -71.4444 C.ar      11 UNK        -0.0753 
     14 C14       -78.7543   29.1656  -70.8209 C.ar      11 UNK        -0.0933 
     15 C15       -76.2181   29.1130  -70.8197 C.3       11 UNK         0.0166 
     16 S16       -75.4637   27.7462  -71.7488 S.3       11 UNK        -0.2615 
     17 C17       -73.7274   27.8547  -71.2052 C.3       11 UNK        -0.0865 
     18 CA        -72.9113   28.9345  -71.9671 C.3       10 UNK         0.0862 
     19 C         -71.4334   28.9591  -71.4743 C.2       10 UNK         0.5551 
     20 N         -70.4371   28.7001  -72.3142 N.am      10 UNK        -0.7319 
     21 O         -71.1874   29.2238  -70.3002 O.2       10 UNK        -0.5018 
     22 N         -73.0688   28.8232  -73.4255 N.am      10 UNK        -0.4509 
     23 C         -72.8039   29.8004  -74.3021 C.2       10 UNK         0.4899 
     24 O         -72.4906   30.9458  -73.9736 O.2       10 UNK        -0.4839 
     25 CA        -72.8961   29.4267  -75.7967 C.3       9 UNK         0.0222 
     26 CB        -72.0456   30.3499  -76.6945 C.3       9 UNK        -0.1966 
     27 N         -72.5917   28.0116  -76.0736 N.am      9 UNK        -0.4218 
     28 C         -71.4555   27.3678  -75.7591 C.2       9 UNK         0.5020 
     29 O         -70.4983   27.9153  -75.2086 O.2       9 UNK        -0.5274 
     30 CA        -71.3578   25.8628  -76.0483 C.3       8 UNK         0.0270 
     31 CB        -71.2371   25.0777  -74.7286 C.3       8 UNK        -0.1976 
     32 N         -72.4932   25.3200  -76.8019 N.am      8 UNK        -0.4313 
     33 C         -72.3683   24.5924  -77.9198 C.2       8 UNK         0.5041 
     34 O         -71.3136   24.4668  -78.5448 O.2       8 UNK        -0.5577 
     35 CA        -73.6069   23.8192  -78.3978 C.3       7 UNK         0.0284 
     36 CB        -73.8443   22.5894  -77.5056 C.3       7 UNK        -0.1958 
     37 N         -74.8250   24.6269  -78.4595 N.am      7 UNK        -0.4454 
     38 C         -75.0806   25.5279  -79.4178 C.2       7 UNK         0.5089 
     39 O         -74.2908   25.8160  -80.3178 O.2       7 UNK        -0.5125 
     40 CA        -76.4577   26.2154  -79.3790 C.3       6 UNK         0.0408 
     41 CB        -77.5422   25.2977  -79.9653 C.3       6 UNK        -0.1791 
     42 N         -76.8512   26.6422  -78.0357 N.am      6 UNK        -0.4762 
     43 C         -76.2150   27.5860  -77.3276 C.2       6 UNK         0.5007 
     44 O         -75.2433   28.2116  -77.7491 O.2       6 UNK        -0.5032 
     45 CA        -76.7181   27.8320  -75.8905 C.3       5 UNK         0.0783 
     46 C46       -78.0024   28.7024  -75.8824 C.3       11 UNK        -0.0857 
     47 S47       -77.6017   30.4835  -75.8642 S.3       11 UNK        -0.2512 
     48 C48       -78.8053   31.1573  -74.6631 C.3       11 UNK         0.0225 
     49 N         -76.8904   26.5746  -75.1597 N.am      5 UNK        -0.4615 
     50 C         -75.9175   25.6846  -74.9175 C.2       4 UNK         0.5053 
     51 O         -74.7359   25.8611  -75.2164 O.2       4 UNK        -0.5105 
     52 CA        -76.3418   24.3438  -74.2974 C.3       4 UNK         0.0263 
     53 CB        -76.4135   24.4342  -72.7663 C.3       4 UNK        -0.1981 
     54 N         -77.6233   23.8751  -74.8289 N.am      4 UNK        -0.4224 
     55 C         -77.8069   23.4523  -76.0882 C.2       3 UNK         0.4895 
     56 O         -76.9051   23.3677  -76.9200 O.2       3 UNK        -0.5091 
     57 CA        -79.2460   23.1077  -76.5032 C.3       3 UNK         0.0250 
     58 CB        -79.6227   21.6915  -76.0402 C.3       3 UNK        -0.1996 
     59 N         -80.2227   24.0724  -75.9932 N.am      3 UNK        -0.4254 
     60 C         -80.2817   25.3584  -76.3687 C.2       2 UNK         0.5004 
     61 O         -79.5483   25.8596  -77.2209 O.2       2 UNK        -0.5226 
     62 CA        -81.2995   26.2447  -75.6315 C.3       2 UNK         0.0269 
     63 CB        -82.6773   26.1665  -76.3073 C.3       2 UNK        -0.1926 
     64 N         -81.4324   25.9299  -74.2026 N.am      2 UNK        -0.4687 
     65 C         -80.4370   26.0448  -73.3114 C.2       1 UNK         0.5165 
     66 O         -79.2846   26.3472  -73.6300 O.2       1 UNK        -0.5079 
     67 H67       -79.6170   24.0268  -68.3365 H         1 UNK         0.0900 
     68 H68       -79.9197   23.4153  -69.9588 H         1 UNK         0.0900 
     69 H69       -81.0420   24.5641  -69.2110 H         1 UNK         0.0900 
     70 H70       -78.9930   26.7591  -71.4484 H         1 UNK         0.2959 
     71 H71       -80.9276   24.6711  -71.8012 H         1 UNK         0.1079 
     72 H72       -82.9171   25.8529  -71.5786 H         1 UNK         0.0837 
     73 H73       -82.0649   26.4086  -70.1861 H         1 UNK         0.0837 
     74 H74       -81.7981   30.0782  -70.4845 H         1 UNK         0.0685 
     75 H75       -81.1227   28.6235  -69.7948 H         1 UNK         0.0685 
     76 H76       -80.9175   30.3919  -73.1281 H         1 UNK         0.1434 
     77 H77       -76.6281   30.4155  -73.1508 H         1 UNK         0.1329 
     78 H78       -78.7417   28.6508  -69.8696 H         1 UNK         0.1335 
     79 H79       -76.3422   28.8165  -69.7770 H         1 UNK         0.0680 
     80 H80       -75.5576   29.9808  -70.8252 H         1 UNK         0.0680 
     81 H81       -73.7074   28.0419  -70.1297 H         1 UNK         0.1032 
     82 H82       -73.2752   26.8714  -71.3476 H         1 UNK         0.1032 
     83 H83       -73.3240   29.9040  -71.6830 H         1 UNK         0.0461 
     84 H84       -69.4898   28.7253  -71.9727 H         1 UNK         0.3453 
     85 H85       -70.6119   28.4897  -73.2912 H         1 UNK         0.3453 
     86 H86       -73.3365   27.9149  -73.7758 H         1 UNK         0.2984 
     87 H87       -73.9386   29.5866  -76.0664 H         1 UNK         0.0554 
     88 H88       -72.1510   30.0838  -77.7463 H         1 UNK         0.0847 
     89 H89       -70.9867   30.3005  -76.4391 H         1 UNK         0.0847 
     90 H90       -72.3561   31.3905  -76.5940 H         1 UNK         0.0847 
     91 H91       -73.3342   27.4879  -76.5194 H         1 UNK         0.3141 
     92 H92       -70.4286   25.7277  -76.6053 H         1 UNK         0.0743 
     93 H93       -70.3884   25.4242  -74.1370 H         1 UNK         0.0784 
     94 H94       -72.1311   25.1866  -74.1127 H         1 UNK         0.0784 
     95 H95       -71.0863   24.0141  -74.9139 H         1 UNK         0.0784 
     96 H96       -73.4018   25.3818  -76.3423 H         1 UNK         0.3213 
     97 H97       -73.3950   23.4558  -79.4061 H         1 UNK         0.0855 
     98 H98       -74.1035   22.8730  -76.4851 H         1 UNK         0.0814 
     99 H99       -72.9518   21.9641  -77.4546 H         1 UNK         0.0814 
    100 H100      -74.6519   21.9688  -77.8942 H         1 UNK         0.0814 
    101 H101      -75.5612   24.3974  -77.7957 H         1 UNK         0.3105 
    102 H102      -76.3998   27.1082  -80.0052 H         1 UNK         0.0547 
    103 H103      -78.5055   25.8054  -80.0161 H         1 UNK         0.0837 
    104 H104      -77.2849   24.9867  -80.9786 H         1 UNK         0.0837 
    105 H105      -77.6739   24.3940  -79.3696 H         1 UNK         0.0837 
    106 H106      -77.6770   26.2031  -77.6353 H         1 UNK         0.3020 
    107 H107      -75.9311   28.3677  -75.3556 H         1 UNK         0.1245 
    108 H108      -78.5989   28.4731  -75.0003 H         1 UNK         0.0781 
    109 H109      -78.6549   28.4873  -76.7309 H         1 UNK         0.0781 
    110 H110      -78.6078   32.2214  -74.5285 H         1 UNK         0.0836 
    111 H111      -79.8006   31.0824  -75.1038 H         1 UNK         0.0836 
    112 H112      -77.8209   26.3854  -74.7961 H         1 UNK         0.3022 
    113 H113      -75.5801   23.6050  -74.5549 H         1 UNK         0.0747 
    114 H114      -76.6890   23.4782  -72.3214 H         1 UNK         0.0793 
    115 H115      -77.1372   25.1801  -72.4369 H         1 UNK         0.0793 
    116 H116      -75.4456   24.7172  -72.3506 H         1 UNK         0.0793 
    117 H117      -78.4265   23.9641  -74.2250 H         1 UNK         0.3047 
    118 H118      -79.2887   23.1325  -77.5944 H         1 UNK         0.0822 
    119 H119      -78.9140   20.9559  -76.4236 H         1 UNK         0.0807 
    120 H120      -80.6104   21.4056  -76.4027 H         1 UNK         0.0807 
    121 H121      -79.6257   21.6050  -74.9529 H         1 UNK         0.0807 
    122 H122      -80.8712   23.7480  -75.2909 H         1 UNK         0.2946 
    123 H123      -80.9410   27.2739  -75.7082 H         1 UNK         0.1144 
    124 H124      -82.6062   26.4154  -77.3672 H         1 UNK         0.0793 
    125 H125      -83.3792   26.8696  -75.8583 H         1 UNK         0.0793 
    126 H126      -83.1088   25.1674  -76.2350 H         1 UNK         0.0793 
    127 H127      -82.3573   25.6900  -73.8755 H         1 UNK         0.2896 
@<TRIPOS>BOND
     1    1    2 1    
     2    1   67 1    
     3    1   68 1    
     4    1   69 1    
     5    2    3 2    
     6    2    4 am   BACKBONE|DICT|INTERRES
     7    4    5 1    
     8    4   70 1    
     9    5    6 1    
    10    5   65 1    
    11    5   71 1    
    12    6    7 1    
    13    6   72 1    
    14    6   73 1    
    15    7    8 1    
    16    8    9 1    
    17    8   74 1    
    18    8   75 1    
    19    9   10 ar   
    20    9   14 ar   
    21   10   11 ar   
    22   10   76 1    
    23   11   12 ar   
    24   11   48 1    
    25   12   13 ar   
    26   12   77 1    
    27   13   14 ar   
    28   13   15 1    
    29   14   78 1    
    30   15   16 1    
    31   15   79 1    
    32   15   80 1    
    33   16   17 1    
    34   17   18 1    
    35   17   81 1    
    36   17   82 1    
    37   18   19 1    
    38   18   22 1    
    39   18   83 1    
    40   19   20 am   BACKBONE|DICT|INTERRES
    41   19   21 2    
    42   20   84 1    
    43   20   85 1    
    44   22   23 am   BACKBONE|DICT|INTERRES
    45   22   86 1    
    46   23   24 2    
    47   23   25 1    
    48   25   26 1    
    49   25   27 1    
    50   25   87 1    
    51   26   88 1    
    52   26   89 1    
    53   26   90 1    
    54   27   28 am   BACKBONE|DICT|INTERRES
    55   27   91 1    
    56   28   29 2    
    57   28   30 1    
    58   30   31 1    
    59   30   32 1    
    60   30   92 1    
    61   31   93 1    
    62   31   94 1    
    63   31   95 1    
    64   32   33 am   BACKBONE|DICT|INTERRES
    65   32   96 1    
    66   33   34 2    
    67   33   35 1    
    68   35   36 1    
    69   35   37 1    
    70   35   97 1    
    71   36   98 1    
    72   36   99 1    
    73   36  100 1    
    74   37   38 am   BACKBONE|DICT|INTERRES
    75   37  101 1    
    76   38   39 2    
    77   38   40 1    
    78   40   41 1    
    79   40   42 1    
    80   40  102 1    
    81   41  103 1    
    82   41  104 1    
    83   41  105 1    
    84   42   43 am   BACKBONE|DICT|INTERRES
    85   42  106 1    
    86   43   44 2    
    87   43   45 1    
    88   45   46 1    
    89   45   49 1    
    90   45  107 1    
    91   46   47 1    
    92   46  108 1    
    93   46  109 1    
    94   47   48 1    
    95   48  110 1    
    96   48  111 1    
    97   49   50 am   BACKBONE|DICT|INTERRES
    98   49  112 1    
    99   50   51 2    
   100   50   52 1    
   101   52   53 1    
   102   52   54 1    
   103   52  113 1    
   104   53  114 1    
   105   53  115 1    
   106   53  116 1    
   107   54   55 am   BACKBONE|DICT|INTERRES
   108   54  117 1    
   109   55   56 2    
   110   55   57 1    
   111   57   58 1    
   112   57   59 1    
   113   57  118 1    
   114   58  119 1    
   115   58  120 1    
   116   58  121 1    
   117   59   60 am   BACKBONE|DICT|INTERRES
   118   59  122 1    
   119   60   61 2    
   120   60   62 1    
   121   62   63 1    
   122   62   64 1    
   123   62  123 1    
   124   63  124 1    
   125   63  125 1    
   126   63  126 1    
   127   64   65 am   BACKBONE|DICT|INTERRES
   128   64  127 1    
   129   65   66 2    
@<TRIPOS>SUBSTRUCTURE
     1 UNK         1 GROUP             0       ****    0 ROOT    
