@<TRIPOS>MOLECULE
3R135
127   129    1
SMALL
USER_CHARGES


@<TRIPOS>ATOM
      1 CA        -77.9241   31.0860  -76.3281 C.3       0 UNK        -0.1998 
      2 C         -78.8141   29.9855  -75.7710 C.2       0 UNK         0.4909 
      3 O         -80.0163   29.9814  -76.0377 O.2       0 UNK        -0.5240 
      4 N         -78.2233   29.0601  -75.0006 N.am      1 UNK        -0.4739 
      5 CA        -78.8757   27.9128  -74.3445 C.3       1 UNK         0.0864 
      6 C6        -79.9480   28.3153  -73.2875 C.3       11 UNK        -0.0881 
      7 S7        -79.4543   29.6857  -72.1807 S.3       11 UNK        -0.2682 
      8 C8        -78.9525   28.8214  -70.6625 C.3       11 UNK         0.0289 
      9 C9        -77.5632   28.2126  -70.7818 C.ar      11 UNK        -0.0687 
     10 C10       -77.3993   26.8253  -70.7970 C.ar      11 UNK        -0.0823 
     11 C11       -76.1193   26.2533  -70.8531 C.ar      11 UNK        -0.0830 
     12 C12       -75.0053   27.0990  -70.8941 C.ar      11 UNK        -0.1021 
     13 C13       -75.1557   28.4882  -70.8873 C.ar      11 UNK        -0.0753 
     14 C14       -76.4377   29.0394  -70.8317 C.ar      11 UNK        -0.0933 
     15 C15       -73.9339   29.3931  -70.8993 C.3       11 UNK         0.0166 
     16 S16       -73.3793   29.7615  -72.5919 S.3       11 UNK        -0.2615 
     17 C17       -72.0647   30.9805  -72.2337 C.3       11 UNK        -0.0865 
     18 CA        -72.5445   32.4424  -72.4717 C.3       10 UNK         0.0862 
     19 C         -71.6086   33.5137  -71.8287 C.2       10 UNK         0.5551 
     20 N         -71.5374   34.7268  -72.3630 N.am      10 UNK        -0.7319 
     21 O         -70.9656   33.2594  -70.8128 O.2       10 UNK        -0.5018 
     22 N         -72.9046   32.6840  -73.8821 N.am      10 UNK        -0.4509 
     23 C         -72.0561   32.7346  -74.9192 C.2       10 UNK         0.4899 
     24 O         -70.8297   32.6683  -74.8184 O.2       10 UNK        -0.4839 
     25 CA        -72.7187   32.8405  -76.3064 C.3       9 UNK         0.0222 
     26 CB        -71.7007   33.0132  -77.4547 C.3       9 UNK        -0.1966 
     27 N         -73.6157   31.7041  -76.5619 N.am      9 UNK        -0.4218 
     28 C         -73.2823   30.4040  -76.5792 C.2       9 UNK         0.5020 
     29 O         -72.1320   29.9710  -76.4581 O.2       9 UNK        -0.5274 
     30 CA        -74.4353   29.4126  -76.7707 C.3       8 UNK         0.0270 
     31 CB        -74.9093   29.3678  -78.2363 C.3       8 UNK        -0.1976 
     32 N         -73.9666   28.0997  -76.3443 N.am      8 UNK        -0.4313 
     33 C         -74.7336   27.0619  -76.0095 C.2       8 UNK         0.5041 
     34 O         -75.9654   27.0703  -76.0640 O.2       8 UNK        -0.5577 
     35 CA        -74.0025   25.8189  -75.4952 C.3       7 UNK         0.0284 
     36 CB        -73.7163   25.9482  -73.9907 C.3       7 UNK        -0.1958 
     37 N         -74.8308   24.6417  -75.7383 N.am      7 UNK        -0.4454 
     38 C         -74.3700   23.3942  -75.8899 C.2       7 UNK         0.5089 
     39 O         -73.1764   23.0936  -75.8225 O.2       7 UNK        -0.5125 
     40 CA        -75.4268   22.3086  -76.1660 C.3       6 UNK         0.0408 
     41 CB        -74.8575   20.8740  -76.1568 C.3       6 UNK        -0.1791 
     42 N         -76.5885   22.4321  -75.2806 N.am      6 UNK        -0.4762 
     43 C         -76.6391   22.2673  -73.9495 C.2       6 UNK         0.5007 
     44 O         -75.6756   21.9113  -73.2707 O.2       6 UNK        -0.5032 
     45 CA        -77.9933   22.5254  -73.2529 C.3       5 UNK         0.0783 
     46 C46       -78.0052   23.8688  -72.4798 C.3       11 UNK        -0.0857 
     47 S47       -77.3627   23.6864  -70.7825 S.3       11 UNK        -0.2512 
     48 C48       -75.8734   24.7406  -70.8459 C.3       11 UNK         0.0225 
     49 N         -79.1186   22.4562  -74.1927 N.am      5 UNK        -0.4615 
     50 C         -80.1780   21.6461  -74.0585 C.2       4 UNK         0.5053 
     51 O         -80.3242   20.8579  -73.1237 O.2       4 UNK        -0.5105 
     52 CA        -81.2749   21.7209  -75.1389 C.3       4 UNK         0.0263 
     53 CB        -82.4133   22.6456  -74.6781 C.3       4 UNK        -0.1981 
     54 N         -80.7845   22.1824  -76.4381 N.am      4 UNK        -0.4224 
     55 C         -79.9353   21.5071  -77.2249 C.2       3 UNK         0.4895 
     56 O         -79.5594   20.3574  -76.9953 O.2       3 UNK        -0.5091 
     57 CA        -79.3858   22.2402  -78.4648 C.3       3 UNK         0.0250 
     58 CB        -80.0705   21.7204  -79.7396 C.3       3 UNK        -0.1996 
     59 N         -79.4879   23.7072  -78.4319 N.am      3 UNK        -0.4254 
     60 C         -78.9597   24.5135  -77.4998 C.2       2 UNK         0.5004 
     61 O         -78.3725   24.0946  -76.5006 O.2       2 UNK        -0.5226 
     62 CA        -79.0957   26.0273  -77.7320 C.3       2 UNK         0.0269 
     63 CB        -80.4780   26.4366  -78.2892 C.3       2 UNK        -0.1926 
     64 N         -78.7605   26.8114  -76.5386 N.am      2 UNK        -0.4687 
     65 C         -79.4272   26.8946  -75.3763 C.2       1 UNK         0.5165 
     66 O         -80.4409   26.2408  -75.1185 O.2       1 UNK        -0.5079 
     67 H67       -77.5662   30.8141  -77.3205 H         1 UNK         0.0900 
     68 H68       -78.4824   32.0183  -76.4107 H         1 UNK         0.0900 
     69 H69       -77.0666   31.2700  -75.6820 H         1 UNK         0.0900 
     70 H70       -77.2244   29.1047  -74.8569 H         1 UNK         0.2959 
     71 H71       -78.0789   27.3875  -73.8150 H         1 UNK         0.1079 
     72 H72       -80.2258   27.4485  -72.6854 H         1 UNK         0.0837 
     73 H73       -80.8648   28.6317  -73.7886 H         1 UNK         0.0837 
     74 H74       -78.9512   29.5384  -69.8404 H         1 UNK         0.0685 
     75 H75       -79.6975   28.0674  -70.4036 H         1 UNK         0.0685 
     76 H76       -78.2805   26.2034  -70.7460 H         1 UNK         0.1434 
     77 H77       -74.0110   26.6741  -70.9288 H         1 UNK         0.1329 
     78 H78       -76.5622   30.1137  -70.8159 H         1 UNK         0.1335 
     79 H79       -74.1586   30.3275  -70.3822 H         1 UNK         0.0680 
     80 H80       -73.1186   28.9236  -70.3465 H         1 UNK         0.0680 
     81 H81       -71.1982   30.7560  -72.8576 H         1 UNK         0.1032 
     82 H82       -71.7294   30.8378  -71.2050 H         1 UNK         0.1032 
     83 H83       -73.4774   32.5594  -71.9190 H         1 UNK         0.0461 
     84 H84       -72.0658   34.9503  -73.1910 H         1 UNK         0.3453 
     85 H85       -70.9412   35.4203  -71.9396 H         1 UNK         0.3453 
     86 H86       -73.8941   32.7558  -74.0675 H         1 UNK         0.2984 
     87 H87       -73.3434   33.7349  -76.2872 H         1 UNK         0.0554 
     88 H88       -71.0934   33.9066  -77.3041 H         1 UNK         0.0847 
     89 H89       -72.2018   33.1205  -78.4165 H         1 UNK         0.0847 
     90 H90       -71.0167   32.1669  -77.5265 H         1 UNK         0.0847 
     91 H91       -74.5892   31.9443  -76.6860 H         1 UNK         0.3141 
     92 H92       -75.2579   29.7149  -76.1214 H         1 UNK         0.0743 
     93 H93       -74.1114   29.0418  -78.9047 H         1 UNK         0.0784 
     94 H94       -75.7501   28.6854  -78.3624 H         1 UNK         0.0784 
     95 H95       -75.2394   30.3498  -78.5767 H         1 UNK         0.0784 
     96 H96       -72.9601   28.0583  -76.2249 H         1 UNK         0.3213 
     97 H97       -73.0621   25.7192  -76.0421 H         1 UNK         0.0855 
     98 H98       -73.0871   26.8137  -73.7795 H         1 UNK         0.0814 
     99 H99       -73.2037   25.0689  -73.6005 H         1 UNK         0.0814 
    100 H100      -74.6434   26.0742  -73.4332 H         1 UNK         0.0814 
    101 H101      -75.8188   24.8372  -75.8546 H         1 UNK         0.3105 
    102 H102      -75.7995   22.5015  -77.1731 H         1 UNK         0.0547 
    103 H103      -74.0875   20.7572  -76.9201 H         1 UNK         0.0837 
    104 H104      -74.4020   20.6210  -75.1992 H         1 UNK         0.0837 
    105 H105      -75.6341   20.1381  -76.3650 H         1 UNK         0.0837 
    106 H106      -77.4058   22.8369  -75.7327 H         1 UNK         0.3020 
    107 H107      -78.0957   21.7122  -72.5305 H         1 UNK         0.1245 
    108 H108      -79.0283   24.2349  -72.3775 H         1 UNK         0.0781 
    109 H109      -77.4710   24.6526  -73.0215 H         1 UNK         0.0781 
    110 H110      -75.2840   24.4604  -71.7201 H         1 UNK         0.0836 
    111 H111      -75.2607   24.4991  -69.9763 H         1 UNK         0.0836 
    112 H112      -79.0772   23.0821  -74.9911 H         1 UNK         0.3022 
    113 H113      -81.6787   20.7145  -75.2683 H         1 UNK         0.0747 
    114 H114      -83.2361   22.6502  -75.3932 H         1 UNK         0.0793 
    115 H115      -82.8201   22.3169  -73.7207 H         1 UNK         0.0793 
    116 H116      -82.0711   23.6740  -74.5512 H         1 UNK         0.0793 
    117 H117      -81.0349   23.1222  -76.7092 H         1 UNK         0.3047 
    118 H118      -78.3233   21.9953  -78.5252 H         1 UNK         0.0822 
    119 H119      -79.6136   22.1393  -80.6365 H         1 UNK         0.0807 
    120 H120      -81.1330   21.9666  -79.7556 H         1 UNK         0.0807 
    121 H121      -79.9866   20.6351  -79.8151 H         1 UNK         0.0807 
    122 H122      -79.9599   24.1344  -79.2159 H         1 UNK         0.2946 
    123 H123      -78.3415   26.2869  -78.4766 H         1 UNK         0.1144 
    124 H124      -80.6370   26.0485  -79.2956 H         1 UNK         0.0793 
    125 H125      -80.5697   27.5213  -78.3524 H         1 UNK         0.0793 
    126 H126      -81.2940   26.0726  -77.6637 H         1 UNK         0.0793 
    127 H127      -77.8518   27.2670  -76.5635 H         1 UNK         0.2896 
@<TRIPOS>BOND
     1    1    2 1    
     2    1   67 1    
     3    1   68 1    
     4    1   69 1    
     5    2    3 2    
     6    2    4 am   BACKBONE|DICT|INTERRES
     7    4    5 1    
     8    4   70 1    
     9    5    6 1    
    10    5   65 1    
    11    5   71 1    
    12    6    7 1    
    13    6   72 1    
    14    6   73 1    
    15    7    8 1    
    16    8    9 1    
    17    8   74 1    
    18    8   75 1    
    19    9   10 ar   
    20    9   14 ar   
    21   10   11 ar   
    22   10   76 1    
    23   11   12 ar   
    24   11   48 1    
    25   12   13 ar   
    26   12   77 1    
    27   13   14 ar   
    28   13   15 1    
    29   14   78 1    
    30   15   16 1    
    31   15   79 1    
    32   15   80 1    
    33   16   17 1    
    34   17   18 1    
    35   17   81 1    
    36   17   82 1    
    37   18   19 1    
    38   18   22 1    
    39   18   83 1    
    40   19   20 am   BACKBONE|DICT|INTERRES
    41   19   21 2    
    42   20   84 1    
    43   20   85 1    
    44   22   23 am   BACKBONE|DICT|INTERRES
    45   22   86 1    
    46   23   24 2    
    47   23   25 1    
    48   25   26 1    
    49   25   27 1    
    50   25   87 1    
    51   26   88 1    
    52   26   89 1    
    53   26   90 1    
    54   27   28 am   BACKBONE|DICT|INTERRES
    55   27   91 1    
    56   28   29 2    
    57   28   30 1    
    58   30   31 1    
    59   30   32 1    
    60   30   92 1    
    61   31   93 1    
    62   31   94 1    
    63   31   95 1    
    64   32   33 am   BACKBONE|DICT|INTERRES
    65   32   96 1    
    66   33   34 2    
    67   33   35 1    
    68   35   36 1    
    69   35   37 1    
    70   35   97 1    
    71   36   98 1    
    72   36   99 1    
    73   36  100 1    
    74   37   38 am   BACKBONE|DICT|INTERRES
    75   37  101 1    
    76   38   39 2    
    77   38   40 1    
    78   40   41 1    
    79   40   42 1    
    80   40  102 1    
    81   41  103 1    
    82   41  104 1    
    83   41  105 1    
    84   42   43 am   BACKBONE|DICT|INTERRES
    85   42  106 1    
    86   43   44 2    
    87   43   45 1    
    88   45   46 1    
    89   45   49 1    
    90   45  107 1    
    91   46   47 1    
    92   46  108 1    
    93   46  109 1    
    94   47   48 1    
    95   48  110 1    
    96   48  111 1    
    97   49   50 am   BACKBONE|DICT|INTERRES
    98   49  112 1    
    99   50   51 2    
   100   50   52 1    
   101   52   53 1    
   102   52   54 1    
   103   52  113 1    
   104   53  114 1    
   105   53  115 1    
   106   53  116 1    
   107   54   55 am   BACKBONE|DICT|INTERRES
   108   54  117 1    
   109   55   56 2    
   110   55   57 1    
   111   57   58 1    
   112   57   59 1    
   113   57  118 1    
   114   58  119 1    
   115   58  120 1    
   116   58  121 1    
   117   59   60 am   BACKBONE|DICT|INTERRES
   118   59  122 1    
   119   60   61 2    
   120   60   62 1    
   121   62   63 1    
   122   62   64 1    
   123   62  123 1    
   124   63  124 1    
   125   63  125 1    
   126   63  126 1    
   127   64   65 am   BACKBONE|DICT|INTERRES
   128   64  127 1    
   129   65   66 2    
@<TRIPOS>SUBSTRUCTURE
     1 UNK         1 GROUP             0       ****    0 ROOT    
