@<TRIPOS>MOLECULE
3R135
127   129    1
SMALL
USER_CHARGES


@<TRIPOS>ATOM
      1 CA        -86.1976   28.2418  -72.1867 C.3       0 UNK        -0.1998 
      2 C         -84.8379   28.6985  -71.6801 C.2       0 UNK         0.4909 
      3 O         -84.7174   29.8093  -71.1631 O.2       0 UNK        -0.5240 
      4 N         -83.8108   27.8512  -71.8272 N.am      1 UNK        -0.4739 
      5 CA        -82.4292   28.1268  -71.4081 C.3       1 UNK         0.0864 
      6 C6        -81.6301   26.8092  -71.2299 C.3       11 UNK        -0.0881 
      7 S7        -81.3323   25.9043  -72.7943 S.3       11 UNK        -0.2682 
      8 C8        -79.9653   24.7910  -72.3216 C.3       11 UNK         0.0289 
      9 C9        -78.5849   25.4286  -72.1320 C.ar      11 UNK        -0.0687 
     10 C10       -77.5178   24.5784  -71.8248 C.ar      11 UNK        -0.0823 
     11 C11       -76.2274   25.0800  -71.6358 C.ar      11 UNK        -0.0830 
     12 C12       -76.0026   26.4541  -71.7480 C.ar      11 UNK        -0.1021 
     13 C13       -77.0538   27.3221  -72.0538 C.ar      11 UNK        -0.0753 
     14 C14       -78.3391   26.8054  -72.2460 C.ar      11 UNK        -0.0933 
     15 C15       -76.8019   28.8188  -72.1676 C.3       11 UNK         0.0166 
     16 S16       -76.6521   29.3303  -73.9081 S.3       11 UNK        -0.2615 
     17 C17       -75.2992   30.5514  -73.8390 C.3       11 UNK        -0.0865 
     18 CA        -74.6103   30.7737  -75.2136 C.3       10 UNK         0.0862 
     19 C         -73.5425   31.9025  -75.0933 C.2       10 UNK         0.5551 
     20 N         -72.2477   31.6073  -75.1388 N.am      10 UNK        -0.7319 
     21 O         -73.9012   33.0690  -74.9527 O.2       10 UNK        -0.5018 
     22 N         -74.1033   29.5138  -75.7819 N.am      10 UNK        -0.4509 
     23 C         -73.6286   29.3514  -77.0257 C.2       10 UNK         0.4899 
     24 O         -73.7082   30.2136  -77.9018 O.2       10 UNK        -0.4839 
     25 CA        -72.9356   28.0040  -77.3392 C.3       9 UNK         0.0222 
     26 CB        -71.8065   28.1523  -78.3799 C.3       9 UNK        -0.1966 
     27 N         -72.4441   27.2940  -76.1481 N.am      9 UNK        -0.4218 
     28 C         -71.5771   27.7558  -75.2309 C.2       9 UNK         0.5020 
     29 O         -71.0249   28.8554  -75.2951 O.2       9 UNK        -0.5274 
     30 CA        -71.3433   26.8777  -73.9976 C.3       8 UNK         0.0270 
     31 CB        -72.5218   27.0302  -73.0220 C.3       8 UNK        -0.1976 
     32 N         -71.1775   25.4677  -74.3537 N.am      8 UNK        -0.4313 
     33 C         -69.9910   24.8568  -74.4778 C.2       8 UNK         0.5041 
     34 O         -68.9077   25.4199  -74.3129 O.2       8 UNK        -0.5577 
     35 CA        -70.0023   23.3581  -74.8290 C.3       7 UNK         0.0284 
     36 CB        -70.0233   22.5090  -73.5473 C.3       7 UNK        -0.1958 
     37 N         -71.1284   22.9725  -75.6798 N.am      7 UNK        -0.4454 
     38 C         -71.2627   23.3120  -76.9692 C.2       7 UNK         0.5089 
     39 O         -70.4144   23.9361  -77.6067 O.2       7 UNK        -0.5125 
     40 CA        -72.5739   22.8969  -77.6648 C.3       6 UNK         0.0408 
     41 CB        -72.3639   21.6086  -78.4762 C.3       6 UNK        -0.1791 
     42 N         -73.7147   22.7171  -76.7554 N.am      6 UNK        -0.4762 
     43 C         -74.2411   23.6883  -75.9967 C.2       6 UNK         0.5007 
     44 O         -73.7731   24.8310  -75.9359 O.2       6 UNK        -0.5032 
     45 CA        -75.4601   23.3186  -75.1277 C.3       5 UNK         0.0783 
     46 C46       -75.0491   22.7178  -73.7569 C.3       11 UNK        -0.0857 
     47 S47       -74.0050   23.7956  -72.7093 S.3       11 UNK        -0.2512 
     48 C48       -75.0820   24.1418  -71.2825 C.3       11 UNK         0.0225 
     49 N         -76.2879   24.5134  -74.9833 N.am      5 UNK        -0.4615 
     50 C         -77.2232   24.8870  -75.8627 C.2       4 UNK         0.5053 
     51 O         -77.6789   24.1448  -76.7341 O.2       4 UNK        -0.5105 
     52 CA        -77.6401   26.3618  -75.7852 C.3       4 UNK         0.0263 
     53 CB        -76.8122   27.2099  -76.7706 C.3       4 UNK        -0.1981 
     54 N         -79.0798   26.5952  -75.9337 N.am      4 UNK        -0.4224 
     55 C         -79.8462   26.5122  -77.0317 C.2       3 UNK         0.4895 
     56 O         -79.4469   26.2019  -78.1544 O.2       3 UNK        -0.5091 
     57 CA        -81.3315   26.8732  -76.8488 C.3       3 UNK         0.0250 
     58 CB        -82.1647   25.6098  -76.5763 C.3       3 UNK        -0.1996 
     59 N         -81.5663   27.8536  -75.7813 N.am      3 UNK        -0.4254 
     60 C         -81.2558   29.1586  -75.8596 C.2       2 UNK         0.5004 
     61 O         -80.7300   29.6697  -76.8489 O.2       2 UNK        -0.5226 
     62 CA        -81.6008   30.0551  -74.6541 C.3       2 UNK         0.0269 
     63 CB        -82.5608   31.1844  -75.0691 C.3       2 UNK        -0.1926 
     64 N         -82.2176   29.2954  -73.5638 N.am      2 UNK        -0.4687 
     65 C         -81.6932   29.1148  -72.3439 C.2       1 UNK         0.5165 
     66 O         -80.6576   29.6568  -71.9566 O.2       1 UNK        -0.5079 
     67 H67       -86.1572   27.2426  -72.6201 H         1 UNK         0.0900 
     68 H68       -86.9168   28.2270  -71.3682 H         1 UNK         0.0900 
     69 H69       -86.5638   28.9281  -72.9497 H         1 UNK         0.0900 
     70 H70       -83.9631   26.9452  -72.2492 H         1 UNK         0.2959 
     71 H71       -82.4738   28.6137  -70.4310 H         1 UNK         0.1079 
     72 H72       -82.1616   26.1445  -70.5471 H         1 UNK         0.0837 
     73 H73       -80.6778   27.0185  -70.7403 H         1 UNK         0.0837 
     74 H74       -79.8837   24.0277  -73.0969 H         1 UNK         0.0685 
     75 H75       -80.2450   24.2690  -71.4053 H         1 UNK         0.0685 
     76 H76       -77.6950   23.5155  -71.7310 H         1 UNK         0.1434 
     77 H77       -75.0087   26.8481  -71.5894 H         1 UNK         0.1329 
     78 H78       -79.1343   27.4927  -72.4905 H         1 UNK         0.1335 
     79 H79       -77.6225   29.3701  -71.7055 H         1 UNK         0.0680 
     80 H80       -75.9034   29.0870  -71.6105 H         1 UNK         0.0680 
     81 H81       -74.5598   30.2285  -73.1038 H         1 UNK         0.1032 
     82 H82       -75.7161   31.4877  -73.4624 H         1 UNK         0.1032 
     83 H83       -75.3687   31.1451  -75.9055 H         1 UNK         0.0461 
     84 H84       -71.9318   30.6493  -75.2490 H         1 UNK         0.3453 
     85 H85       -71.5715   32.3498  -75.0607 H         1 UNK         0.3453 
     86 H86       -74.0182   28.7456  -75.1354 H         1 UNK         0.2984 
     87 H87       -73.7010   27.3622  -77.7770 H         1 UNK         0.0554 
     88 H88       -72.1897   28.5426  -79.3235 H         1 UNK         0.0847 
     89 H89       -71.3381   27.1917  -78.5950 H         1 UNK         0.0847 
     90 H90       -71.0287   28.8356  -78.0376 H         1 UNK         0.0847 
     91 H91       -72.8683   26.3787  -75.9973 H         1 UNK         0.3141 
     92 H92       -70.4467   27.2438  -73.4925 H         1 UNK         0.0743 
     93 H93       -72.6496   28.0710  -72.7210 H         1 UNK         0.0784 
     94 H94       -73.4610   26.7008  -73.4680 H         1 UNK         0.0784 
     95 H95       -72.3603   26.4490  -72.1140 H         1 UNK         0.0784 
     96 H96       -72.0199   24.9392  -74.5434 H         1 UNK         0.3213 
     97 H97       -69.0783   23.1390  -75.3691 H         1 UNK         0.0855 
     98 H98       -70.9335   22.6716  -72.9683 H         1 UNK         0.0814 
     99 H99       -69.1792   22.7572  -72.9023 H         1 UNK         0.0814 
    100 H100      -69.9534   21.4449  -73.7737 H         1 UNK         0.0814 
    101 H101      -71.8738   22.4471  -75.2473 H         1 UNK         0.3105 
    102 H102      -72.8341   23.6974  -78.3607 H         1 UNK         0.0547 
    103 H103      -71.5393   21.7217  -79.1817 H         1 UNK         0.0837 
    104 H104      -72.1274   20.7596  -77.8337 H         1 UNK         0.0837 
    105 H105      -73.2502   21.3551  -79.0579 H         1 UNK         0.0837 
    106 H106      -74.1385   21.7997  -76.7443 H         1 UNK         0.3020 
    107 H107      -76.0325   22.5567  -75.6620 H         1 UNK         0.1245 
    108 H108      -74.5049   21.7845  -73.9114 H         1 UNK         0.0781 
    109 H109      -75.9451   22.4342  -73.2039 H         1 UNK         0.0781 
    110 H110      -74.4789   24.5942  -70.4939 H         1 UNK         0.0836 
    111 H111      -75.4573   23.2031  -70.8721 H         1 UNK         0.0836 
    112 H112      -75.9545   25.1809  -74.3021 H         1 UNK         0.3022 
    113 H113      -77.4002   26.7095  -74.7839 H         1 UNK         0.0747 
    114 H114      -75.7529   27.1431  -76.5256 H         1 UNK         0.0793 
    115 H115      -77.0918   28.2626  -76.7282 H         1 UNK         0.0793 
    116 H116      -76.9260   26.8715  -77.8007 H         1 UNK         0.0793 
    117 H117      -79.5552   26.8350  -75.0760 H         1 UNK         0.3047 
    118 H118      -81.6790   27.3103  -77.7877 H         1 UNK         0.0822 
    119 H119      -83.2267   25.8421  -76.4952 H         1 UNK         0.0807 
    120 H120      -81.8572   25.1099  -75.6575 H         1 UNK         0.0807 
    121 H121      -82.0530   24.8899  -77.3883 H         1 UNK         0.0807 
    122 H122      -81.9680   27.5031  -74.9241 H         1 UNK         0.2946 
    123 H123      -80.6615   30.5044  -74.3229 H         1 UNK         0.1144 
    124 H124      -82.1251   31.8022  -75.8556 H         1 UNK         0.0793 
    125 H125      -82.7823   31.8426  -74.2287 H         1 UNK         0.0793 
    126 H126      -83.5062   30.7928  -75.4465 H         1 UNK         0.0793 
    127 H127      -83.0937   28.8363  -73.7688 H         1 UNK         0.2896 
@<TRIPOS>BOND
     1    1    2 1    
     2    1   67 1    
     3    1   68 1    
     4    1   69 1    
     5    2    3 2    
     6    2    4 am   BACKBONE|DICT|INTERRES
     7    4    5 1    
     8    4   70 1    
     9    5    6 1    
    10    5   65 1    
    11    5   71 1    
    12    6    7 1    
    13    6   72 1    
    14    6   73 1    
    15    7    8 1    
    16    8    9 1    
    17    8   74 1    
    18    8   75 1    
    19    9   10 ar   
    20    9   14 ar   
    21   10   11 ar   
    22   10   76 1    
    23   11   12 ar   
    24   11   48 1    
    25   12   13 ar   
    26   12   77 1    
    27   13   14 ar   
    28   13   15 1    
    29   14   78 1    
    30   15   16 1    
    31   15   79 1    
    32   15   80 1    
    33   16   17 1    
    34   17   18 1    
    35   17   81 1    
    36   17   82 1    
    37   18   19 1    
    38   18   22 1    
    39   18   83 1    
    40   19   20 am   BACKBONE|DICT|INTERRES
    41   19   21 2    
    42   20   84 1    
    43   20   85 1    
    44   22   23 am   BACKBONE|DICT|INTERRES
    45   22   86 1    
    46   23   24 2    
    47   23   25 1    
    48   25   26 1    
    49   25   27 1    
    50   25   87 1    
    51   26   88 1    
    52   26   89 1    
    53   26   90 1    
    54   27   28 am   BACKBONE|DICT|INTERRES
    55   27   91 1    
    56   28   29 2    
    57   28   30 1    
    58   30   31 1    
    59   30   32 1    
    60   30   92 1    
    61   31   93 1    
    62   31   94 1    
    63   31   95 1    
    64   32   33 am   BACKBONE|DICT|INTERRES
    65   32   96 1    
    66   33   34 2    
    67   33   35 1    
    68   35   36 1    
    69   35   37 1    
    70   35   97 1    
    71   36   98 1    
    72   36   99 1    
    73   36  100 1    
    74   37   38 am   BACKBONE|DICT|INTERRES
    75   37  101 1    
    76   38   39 2    
    77   38   40 1    
    78   40   41 1    
    79   40   42 1    
    80   40  102 1    
    81   41  103 1    
    82   41  104 1    
    83   41  105 1    
    84   42   43 am   BACKBONE|DICT|INTERRES
    85   42  106 1    
    86   43   44 2    
    87   43   45 1    
    88   45   46 1    
    89   45   49 1    
    90   45  107 1    
    91   46   47 1    
    92   46  108 1    
    93   46  109 1    
    94   47   48 1    
    95   48  110 1    
    96   48  111 1    
    97   49   50 am   BACKBONE|DICT|INTERRES
    98   49  112 1    
    99   50   51 2    
   100   50   52 1    
   101   52   53 1    
   102   52   54 1    
   103   52  113 1    
   104   53  114 1    
   105   53  115 1    
   106   53  116 1    
   107   54   55 am   BACKBONE|DICT|INTERRES
   108   54  117 1    
   109   55   56 2    
   110   55   57 1    
   111   57   58 1    
   112   57   59 1    
   113   57  118 1    
   114   58  119 1    
   115   58  120 1    
   116   58  121 1    
   117   59   60 am   BACKBONE|DICT|INTERRES
   118   59  122 1    
   119   60   61 2    
   120   60   62 1    
   121   62   63 1    
   122   62   64 1    
   123   62  123 1    
   124   63  124 1    
   125   63  125 1    
   126   63  126 1    
   127   64   65 am   BACKBONE|DICT|INTERRES
   128   64  127 1    
   129   65   66 2    
@<TRIPOS>SUBSTRUCTURE
     1 UNK         1 GROUP             0       ****    0 ROOT    
