@<TRIPOS>MOLECULE
3R135
127   129    1
SMALL
USER_CHARGES


@<TRIPOS>ATOM
      1 CA        -85.1364   30.8282  -74.6332 C.3       0 UNK        -0.1998 
      2 C         -83.8973   30.0307  -75.0123 C.2       0 UNK         0.4909 
      3 O         -83.6514   29.8083  -76.1988 O.2       0 UNK        -0.5240 
      4 N         -83.1114   29.6081  -74.0148 N.am      1 UNK        -0.4739 
      5 CA        -81.9225   28.7661  -74.1822 C.3       1 UNK         0.0864 
      6 C6        -80.9127   28.9713  -73.0233 C.3       11 UNK        -0.0881 
      7 S7        -81.5710   28.5575  -71.3713 S.3       11 UNK        -0.2682 
      8 C8        -80.3989   29.4505  -70.3028 C.3       11 UNK         0.0289 
      9 C9        -78.9703   28.9450  -70.4598 C.ar      11 UNK        -0.0687 
     10 C10       -78.6382   27.6449  -70.0679 C.ar      11 UNK        -0.0823 
     11 C11       -77.3240   27.1805  -70.1767 C.ar      11 UNK        -0.0830 
     12 C12       -76.3332   28.0387  -70.6689 C.ar      11 UNK        -0.1021 
     13 C13       -76.6530   29.3383  -71.0699 C.ar      11 UNK        -0.0753 
     14 C14       -77.9748   29.7840  -70.9701 C.ar      11 UNK        -0.0933 
     15 C15       -75.5651   30.2752  -71.5711 C.3       11 UNK         0.0166 
     16 S16       -75.2043   30.0194  -73.3370 S.3       11 UNK        -0.2615 
     17 C17       -74.2360   31.5300  -73.6942 C.3       11 UNK        -0.0865 
     18 CA        -72.7164   31.3052  -73.9147 C.3       10 UNK         0.0862 
     19 C         -71.9551   30.8700  -72.6265 C.2       10 UNK         0.5551 
     20 N         -71.0699   29.8806  -72.6729 N.am      10 UNK        -0.7319 
     21 O         -72.1559   31.4569  -71.5661 O.2       10 UNK        -0.5018 
     22 N         -72.4618   30.4604  -75.0904 N.am      10 UNK        -0.4509 
     23 C         -71.4297   30.6082  -75.9292 C.2       10 UNK         0.4899 
     24 O         -70.6028   31.5184  -75.8498 O.2       10 UNK        -0.4839 
     25 CA        -71.3045   29.5391  -77.0293 C.3       9 UNK         0.0222 
     26 CB        -70.0171   29.6796  -77.8697 C.3       9 UNK        -0.1966 
     27 N         -71.4381   28.1750  -76.5034 N.am      9 UNK        -0.4218 
     28 C         -70.6583   27.5720  -75.5894 C.2       9 UNK         0.5020 
     29 O         -69.7197   28.1335  -75.0228 O.2       9 UNK        -0.5274 
     30 CA        -70.9749   26.1103  -75.2079 C.3       8 UNK         0.0270 
     31 CB        -71.2666   25.9988  -73.7010 C.3       8 UNK        -0.1976 
     32 N         -72.0932   25.5346  -75.9619 N.am      8 UNK        -0.4313 
     33 C         -72.0204   25.1124  -77.2348 C.2       8 UNK         0.5041 
     34 O         -70.9660   25.0590  -77.8687 O.2       8 UNK        -0.5577 
     35 CA        -73.3332   24.7198  -77.9467 C.3       7 UNK         0.0284 
     36 CB        -73.4706   23.1898  -78.0044 C.3       7 UNK        -0.1958 
     37 N         -74.5470   25.2843  -77.3480 N.am      7 UNK        -0.4454 
     38 C         -74.7968   26.5862  -77.1435 C.2       7 UNK         0.5089 
     39 O         -74.0673   27.4927  -77.5453 O.2       7 UNK        -0.5125 
     40 CA        -76.0155   26.9330  -76.2686 C.3       6 UNK         0.0408 
     41 CB        -77.2235   27.2902  -77.1457 C.3       6 UNK        -0.1791 
     42 N         -76.3881   25.8702  -75.3260 N.am      6 UNK        -0.4762 
     43 C         -75.5934   25.3674  -74.3669 C.2       6 UNK         0.5007 
     44 O         -74.4417   25.7555  -74.1747 O.2       6 UNK        -0.5032 
     45 CA        -76.1373   24.1856  -73.5447 C.3       5 UNK         0.0783 
     46 C46       -76.9650   24.6470  -72.3183 C.3       11 UNK        -0.0857 
     47 S47       -75.8901   24.8689  -70.8618 S.3       11 UNK        -0.2512 
     48 C48       -76.9851   25.7668  -69.7162 C.3       11 UNK         0.0225 
     49 N         -76.8809   23.2602  -74.4036 N.am      5 UNK        -0.4615 
     50 C         -76.3414   22.1735  -74.9743 C.2       4 UNK         0.5053 
     51 O         -75.1735   21.8212  -74.8089 O.2       4 UNK        -0.5105 
     52 CA        -77.2458   21.3241  -75.8846 C.3       4 UNK         0.0263 
     53 CB        -77.8868   20.1794  -75.0835 C.3       4 UNK        -0.1981 
     54 N         -78.2970   22.0906  -76.5549 N.am      4 UNK        -0.4224 
     55 C         -78.0809   23.0326  -77.4829 C.2       3 UNK         0.4895 
     56 O         -76.9651   23.3635  -77.8840 O.2       3 UNK        -0.5091 
     57 CA        -79.3253   23.7578  -78.0226 C.3       3 UNK         0.0250 
     58 CB        -79.9430   22.9679  -79.1877 C.3       3 UNK        -0.1996 
     59 N         -80.3583   24.0344  -77.0139 N.am      3 UNK        -0.4254 
     60 C         -80.1601   24.7155  -75.8769 C.2       2 UNK         0.5004 
     61 O         -79.0546   25.0888  -75.4779 O.2       2 UNK        -0.5226 
     62 CA        -81.3869   25.0486  -75.0303 C.3       2 UNK         0.0269 
     63 CB        -81.4185   24.2003  -73.7462 C.3       2 UNK        -0.1926 
     64 N         -81.2790   26.4646  -74.7002 N.am      2 UNK        -0.4687 
     65 C         -82.2933   27.2798  -74.3984 C.2       1 UNK         0.5165 
     66 O         -83.4624   26.8964  -74.2922 O.2       1 UNK        -0.5079 
     67 H67       -85.2201   30.9629  -73.5549 H         1 UNK         0.0900 
     68 H68       -86.0327   30.3157  -74.9813 H         1 UNK         0.0900 
     69 H69       -85.1050   31.8140  -75.0965 H         1 UNK         0.0900 
     70 H70       -83.3776   29.7853  -73.0564 H         1 UNK         0.2959 
     71 H71       -81.4213   29.0849  -75.0994 H         1 UNK         0.1079 
     72 H72       -80.5916   30.0143  -73.0146 H         1 UNK         0.0837 
     73 H73       -80.0024   28.3919  -73.1887 H         1 UNK         0.0837 
     74 H74       -80.4621   30.5186  -70.5173 H         1 UNK         0.0685 
     75 H75       -80.7072   29.3289  -69.2636 H         1 UNK         0.0685 
     76 H76       -79.4097   26.9982  -69.6721 H         1 UNK         0.1434 
     77 H77       -75.3094   27.6971  -70.7404 H         1 UNK         0.1329 
     78 H78       -78.2238   30.7919  -71.2727 H         1 UNK         0.1335 
     79 H79       -74.6518   30.1284  -70.9925 H         1 UNK         0.0680 
     80 H80       -75.8706   31.3092  -71.4043 H         1 UNK         0.0680 
     81 H81       -74.6610   31.9832  -74.5911 H         1 UNK         0.1032 
     82 H82       -74.3923   32.2714  -72.9088 H         1 UNK         0.1032 
     83 H83       -72.3111   32.2945  -74.1356 H         1 UNK         0.0461 
     84 H84       -70.8427   29.4259  -73.5462 H         1 UNK         0.3453 
     85 H85       -70.5821   29.6209  -71.8307 H         1 UNK         0.3453 
     86 H86       -73.0834   29.6734  -75.2086 H         1 UNK         0.2984 
     87 H87       -72.1515   29.6908  -77.7001 H         1 UNK         0.0554 
     88 H88       -69.9727   28.9256  -78.6555 H         1 UNK         0.0847 
     89 H89       -69.1196   29.5798  -77.2583 H         1 UNK         0.0847 
     90 H90       -69.9721   30.6554  -78.3548 H         1 UNK         0.0847 
     91 H91       -72.2320   27.6588  -76.8725 H         1 UNK         0.3141 
     92 H92       -70.0800   25.5218  -75.4207 H         1 UNK         0.0743 
     93 H93       -71.5273   24.9789  -73.4178 H         1 UNK         0.0784 
     94 H94       -70.3940   26.2846  -73.1124 H         1 UNK         0.0784 
     95 H95       -72.0860   26.6522  -73.3988 H         1 UNK         0.0784 
     96 H96       -72.9962   25.5479  -75.4937 H         1 UNK         0.3213 
     97 H97       -73.2698   25.0993  -78.9685 H         1 UNK         0.0855 
     98 H98       -72.5909   22.7339  -78.4610 H         1 UNK         0.0814 
     99 H99       -74.3333   22.8902  -78.5997 H         1 UNK         0.0814 
    100 H100      -73.5834   22.7579  -77.0091 H         1 UNK         0.0814 
    101 H101      -75.2471   24.6208  -77.0390 H         1 UNK         0.3105 
    102 H102      -75.7519   27.8120  -75.6769 H         1 UNK         0.0547 
    103 H103      -76.9868   28.1153  -77.8188 H         1 UNK         0.0837 
    104 H104      -77.5337   26.4460  -77.7607 H         1 UNK         0.0837 
    105 H105      -78.0767   27.5990  -76.5418 H         1 UNK         0.0837 
    106 H106      -77.3387   25.5109  -75.4103 H         1 UNK         0.3020 
    107 H107      -75.2584   23.6554  -73.1691 H         1 UNK         0.1245 
    108 H108      -77.7071   23.8924  -72.0524 H         1 UNK         0.0781 
    109 H109      -77.5272   25.5607  -72.5241 H         1 UNK         0.0781 
    110 H110      -76.4960   25.8286  -68.7433 H         1 UNK         0.0836 
    111 H111      -77.8913   25.1771  -69.5683 H         1 UNK         0.0836 
    112 H112      -77.8286   23.5252  -74.6408 H         1 UNK         0.3022 
    113 H113      -76.6099   20.8864  -76.6573 H         1 UNK         0.0747 
    114 H114      -78.4606   19.5147  -75.7295 H         1 UNK         0.0793 
    115 H115      -77.1245   19.5721  -74.5931 H         1 UNK         0.0793 
    116 H116      -78.5544   20.5538  -74.3063 H         1 UNK         0.0793 
    117 H117      -79.2501   21.8953  -76.2854 H         1 UNK         0.3047 
    118 H118      -78.9919   24.7208  -78.4125 H         1 UNK         0.0822 
    119 H119      -80.3433   22.0078  -78.8598 H         1 UNK         0.0807 
    120 H120      -79.1988   22.7642  -79.9593 H         1 UNK         0.0807 
    121 H121      -80.7513   23.5252  -79.6616 H         1 UNK         0.0807 
    122 H122      -81.2992   23.7551  -77.2531 H         1 UNK         0.2946 
    123 H123      -82.2948   24.8744  -75.6124 H         1 UNK         0.1144 
    124 H124      -81.4721   23.1365  -73.9810 H         1 UNK         0.0793 
    125 H125      -80.5275   24.3581  -73.1366 H         1 UNK         0.0793 
    126 H126      -82.2873   24.4411  -73.1334 H         1 UNK         0.0793 
    127 H127      -80.3388   26.8311  -74.7792 H         1 UNK         0.2896 
@<TRIPOS>BOND
     1    1    2 1    
     2    1   67 1    
     3    1   68 1    
     4    1   69 1    
     5    2    3 2    
     6    2    4 am   BACKBONE|DICT|INTERRES
     7    4    5 1    
     8    4   70 1    
     9    5    6 1    
    10    5   65 1    
    11    5   71 1    
    12    6    7 1    
    13    6   72 1    
    14    6   73 1    
    15    7    8 1    
    16    8    9 1    
    17    8   74 1    
    18    8   75 1    
    19    9   10 ar   
    20    9   14 ar   
    21   10   11 ar   
    22   10   76 1    
    23   11   12 ar   
    24   11   48 1    
    25   12   13 ar   
    26   12   77 1    
    27   13   14 ar   
    28   13   15 1    
    29   14   78 1    
    30   15   16 1    
    31   15   79 1    
    32   15   80 1    
    33   16   17 1    
    34   17   18 1    
    35   17   81 1    
    36   17   82 1    
    37   18   19 1    
    38   18   22 1    
    39   18   83 1    
    40   19   20 am   BACKBONE|DICT|INTERRES
    41   19   21 2    
    42   20   84 1    
    43   20   85 1    
    44   22   23 am   BACKBONE|DICT|INTERRES
    45   22   86 1    
    46   23   24 2    
    47   23   25 1    
    48   25   26 1    
    49   25   27 1    
    50   25   87 1    
    51   26   88 1    
    52   26   89 1    
    53   26   90 1    
    54   27   28 am   BACKBONE|DICT|INTERRES
    55   27   91 1    
    56   28   29 2    
    57   28   30 1    
    58   30   31 1    
    59   30   32 1    
    60   30   92 1    
    61   31   93 1    
    62   31   94 1    
    63   31   95 1    
    64   32   33 am   BACKBONE|DICT|INTERRES
    65   32   96 1    
    66   33   34 2    
    67   33   35 1    
    68   35   36 1    
    69   35   37 1    
    70   35   97 1    
    71   36   98 1    
    72   36   99 1    
    73   36  100 1    
    74   37   38 am   BACKBONE|DICT|INTERRES
    75   37  101 1    
    76   38   39 2    
    77   38   40 1    
    78   40   41 1    
    79   40   42 1    
    80   40  102 1    
    81   41  103 1    
    82   41  104 1    
    83   41  105 1    
    84   42   43 am   BACKBONE|DICT|INTERRES
    85   42  106 1    
    86   43   44 2    
    87   43   45 1    
    88   45   46 1    
    89   45   49 1    
    90   45  107 1    
    91   46   47 1    
    92   46  108 1    
    93   46  109 1    
    94   47   48 1    
    95   48  110 1    
    96   48  111 1    
    97   49   50 am   BACKBONE|DICT|INTERRES
    98   49  112 1    
    99   50   51 2    
   100   50   52 1    
   101   52   53 1    
   102   52   54 1    
   103   52  113 1    
   104   53  114 1    
   105   53  115 1    
   106   53  116 1    
   107   54   55 am   BACKBONE|DICT|INTERRES
   108   54  117 1    
   109   55   56 2    
   110   55   57 1    
   111   57   58 1    
   112   57   59 1    
   113   57  118 1    
   114   58  119 1    
   115   58  120 1    
   116   58  121 1    
   117   59   60 am   BACKBONE|DICT|INTERRES
   118   59  122 1    
   119   60   61 2    
   120   60   62 1    
   121   62   63 1    
   122   62   64 1    
   123   62  123 1    
   124   63  124 1    
   125   63  125 1    
   126   63  126 1    
   127   64   65 am   BACKBONE|DICT|INTERRES
   128   64  127 1    
   129   65   66 2    
@<TRIPOS>SUBSTRUCTURE
     1 UNK         1 GROUP             0       ****    0 ROOT    
