@<TRIPOS>MOLECULE
3R135
127   129    1
SMALL
USER_CHARGES


@<TRIPOS>ATOM
      1 CA        -84.3663   26.8226  -71.9865 C.3       0 UNK        -0.1998 
      2 C         -83.8288   27.3373  -73.3129 C.2       0 UNK         0.4909 
      3 O         -84.5887   27.4798  -74.2714 O.2       0 UNK        -0.5240 
      4 N         -82.5184   27.6009  -73.3856 N.am      1 UNK        -0.4739 
      5 CA        -81.8084   28.1183  -74.5639 C.3       1 UNK         0.0864 
      6 C6        -80.5360   28.9078  -74.1546 C.3       11 UNK        -0.0881 
      7 S7        -80.9225   30.4557  -73.2666 S.3       11 UNK        -0.2682 
      8 C8        -80.7635   29.9815  -71.5133 C.3       11 UNK         0.0289 
      9 C9        -79.3489   29.5609  -71.1371 C.ar      11 UNK        -0.0687 
     10 C10       -79.0766   28.2343  -70.7888 C.ar      11 UNK        -0.0823 
     11 C11       -77.7851   27.8462  -70.4193 C.ar      11 UNK        -0.0830 
     12 C12       -76.7684   28.8060  -70.3711 C.ar      11 UNK        -0.1021 
     13 C13       -77.0166   30.1237  -70.7641 C.ar      11 UNK        -0.0753 
     14 C14       -78.3125   30.4992  -71.1308 C.ar      11 UNK        -0.0933 
     15 C15       -75.8804   31.1328  -70.8293 C.3       11 UNK         0.0166 
     16 S16       -74.9216   30.9414  -72.3698 S.3       11 UNK        -0.2615 
     17 C17       -73.7512   29.6105  -71.9248 C.3       11 UNK        -0.0865 
     18 CA        -72.3770   29.7885  -72.6249 C.3       10 UNK         0.0862 
     19 C         -71.2537   28.9551  -71.9342 C.2       10 UNK         0.5551 
     20 N         -70.4002   28.2361  -72.6533 N.am      10 UNK        -0.7319 
     21 O         -71.1407   28.9721  -70.7110 O.2       10 UNK        -0.5018 
     22 N         -72.4861   29.5608  -74.0758 N.am      10 UNK        -0.4509 
     23 C         -71.7277   30.1480  -75.0080 C.2       10 UNK         0.4899 
     24 O         -70.9075   31.0362  -74.7690 O.2       10 UNK        -0.4839 
     25 CA        -71.8972   29.6079  -76.4424 C.3       9 UNK         0.0222 
     26 CB        -70.9158   30.2432  -77.4494 C.3       9 UNK        -0.1966 
     27 N         -71.8169   28.1419  -76.4966 N.am      9 UNK        -0.4218 
     28 C         -70.8083   27.3616  -76.0759 C.2       9 UNK         0.5020 
     29 O         -69.7605   27.7974  -75.5978 O.2       9 UNK        -0.5274 
     30 CA        -71.0020   25.8347  -76.1459 C.3       8 UNK         0.0270 
     31 CB        -71.1746   25.2587  -74.7302 C.3       8 UNK        -0.1976 
     32 N         -72.1422   25.4181  -76.9640 N.am      8 UNK        -0.4313 
     33 C         -72.1870   25.4516  -78.3022 C.2       8 UNK         0.5041 
     34 O         -71.2408   25.7885  -79.0144 O.2       8 UNK        -0.5577 
     35 CA        -73.5321   25.0815  -78.9489 C.3       7 UNK         0.0284 
     36 CB        -73.6814   23.5564  -79.0757 C.3       7 UNK        -0.1958 
     37 N         -74.6693   25.6314  -78.2050 N.am      7 UNK        -0.4454 
     38 C         -74.9773   26.9350  -78.1467 C.2       7 UNK         0.5089 
     39 O         -74.3612   27.8137  -78.7488 O.2       7 UNK        -0.5125 
     40 CA        -76.1472   27.3290  -77.2326 C.3       6 UNK         0.0408 
     41 CB        -77.4860   27.1704  -77.9675 C.3       6 UNK        -0.1791 
     42 N         -76.1630   26.5594  -75.9859 N.am      6 UNK        -0.4762 
     43 C         -75.2820   26.7411  -74.9889 C.2       6 UNK         0.5007 
     44 O         -74.3962   27.5966  -75.0095 O.2       6 UNK        -0.5032 
     45 CA        -75.3774   25.8059  -73.7655 C.3       5 UNK         0.0783 
     46 C46       -76.3412   26.4110  -72.7213 C.3       11 UNK        -0.0857 
     47 S47       -76.0760   25.7069  -71.0599 S.3       11 UNK        -0.2512 
     48 C48       -77.4892   26.3806  -70.1134 C.3       11 UNK         0.0225 
     49 N         -75.7603   24.4341  -74.1083 N.am      5 UNK        -0.4615 
     50 C         -75.1536   23.6418  -75.0014 C.2       4 UNK         0.5053 
     51 O         -74.1115   23.9420  -75.5815 O.2       4 UNK        -0.5105 
     52 CA        -75.8569   22.3182  -75.3589 C.3       4 UNK         0.0263 
     53 CB        -75.1905   21.1469  -74.6210 C.3       4 UNK        -0.1981 
     54 N         -77.3041   22.3007  -75.0957 N.am      4 UNK        -0.4224 
     55 C         -78.1992   23.1651  -75.5974 C.2       3 UNK         0.4895 
     56 O         -77.9024   24.0985  -76.3499 O.2       3 UNK        -0.5091 
     57 CA        -79.6505   22.9873  -75.1315 C.3       3 UNK         0.0250 
     58 CB        -79.7855   23.2296  -73.6140 C.3       3 UNK        -0.1996 
     59 N         -80.4893   23.9419  -75.8458 N.am      3 UNK        -0.4254 
     60 C         -81.7975   23.8375  -76.0880 C.2       2 UNK         0.5004 
     61 O         -82.4859   22.8779  -75.7344 O.2       2 UNK        -0.5226 
     62 CA        -82.4419   25.0336  -76.8175 C.3       2 UNK         0.0269 
     63 CB        -83.8521   24.7116  -77.3461 C.3       2 UNK        -0.1926 
     64 N         -82.5235   26.2105  -75.9476 N.am      2 UNK        -0.4687 
     65 C         -81.4971   26.9836  -75.5673 C.2       1 UNK         0.5165 
     66 O         -80.3448   26.8081  -75.9658 O.2       1 UNK        -0.5079 
     67 H67       -84.8052   25.8339  -72.1182 H         1 UNK         0.0900 
     68 H68       -83.5854   26.7496  -71.2299 H         1 UNK         0.0900 
     69 H69       -85.1399   27.4920  -71.6113 H         1 UNK         0.0900 
     70 H70       -81.9388   27.4219  -72.5798 H         1 UNK         0.2959 
     71 H71       -82.4684   28.8107  -75.0920 H         1 UNK         0.1079 
     72 H72       -79.8604   28.2853  -73.5663 H         1 UNK         0.0837 
     73 H73       -79.9692   29.2012  -75.0405 H         1 UNK         0.0837 
     74 H74       -81.4808   29.1930  -71.2842 H         1 UNK         0.0685 
     75 H75       -81.0508   30.8348  -70.8975 H         1 UNK         0.0685 
     76 H76       -79.8703   27.5004  -70.8131 H         1 UNK         0.1434 
     77 H77       -75.7683   28.5099  -70.0870 H         1 UNK         0.1329 
     78 H78       -78.5153   31.5192  -71.4281 H         1 UNK         0.1335 
     79 H79       -76.2805   32.1473  -70.7955 H         1 UNK         0.0680 
     80 H80       -75.2328   31.0365  -69.9568 H         1 UNK         0.0680 
     81 H81       -73.6317   29.6143  -70.8402 H         1 UNK         0.1032 
     82 H82       -74.1874   28.6434  -72.1762 H         1 UNK         0.1032 
     83 H83       -72.0752   30.8263  -72.4710 H         1 UNK         0.0461 
     84 H84       -70.4157   28.2546  -73.6649 H         1 UNK         0.3453 
     85 H85       -69.6808   27.7174  -72.1759 H         1 UNK         0.3453 
     86 H86       -73.1413   28.8404  -74.3704 H         1 UNK         0.2984 
     87 H87       -72.9094   29.8705  -76.7541 H         1 UNK         0.0554 
     88 H88       -71.0846   29.8653  -78.4578 H         1 UNK         0.0847 
     89 H89       -69.8769   30.0422  -77.1855 H         1 UNK         0.0847 
     90 H90       -71.0388   31.3263  -77.4843 H         1 UNK         0.0847 
     91 H91       -72.6533   27.6778  -76.8242 H         1 UNK         0.3141 
     92 H92       -70.0954   25.4099  -76.5817 H         1 UNK         0.0743 
     93 H93       -72.0524   25.6724  -74.2328 H         1 UNK         0.0784 
     94 H94       -71.2820   24.1739  -74.7520 H         1 UNK         0.0784 
     95 H95       -70.3092   25.4851  -74.1059 H         1 UNK         0.0784 
     96 H96       -72.9448   25.0367  -76.4643 H         1 UNK         0.3213 
     97 H97       -73.5463   25.5090  -79.9541 H         1 UNK         0.0855 
     98 H98       -73.6744   23.0625  -78.1036 H         1 UNK         0.0814 
     99 H99       -72.8621   23.1344  -79.6593 H         1 UNK         0.0814 
    100 H100      -74.6092   23.2891  -79.5816 H         1 UNK         0.0814 
    101 H101      -75.2110   24.9864  -77.6473 H         1 UNK         0.3105 
    102 H102      -76.0288   28.3854  -76.9809 H         1 UNK         0.0547 
    103 H103      -77.4787   27.7091  -78.9160 H         1 UNK         0.0837 
    104 H104      -77.7116   26.1261  -78.1862 H         1 UNK         0.0837 
    105 H105      -78.3062   27.5754  -77.3767 H         1 UNK         0.0837 
    106 H106      -76.8450   25.8095  -75.9193 H         1 UNK         0.3020 
    107 H107      -74.3745   25.7629  -73.3353 H         1 UNK         0.1245 
    108 H108      -77.3822   26.2664  -73.0180 H         1 UNK         0.0781 
    109 H109      -76.1969   27.4900  -72.6512 H         1 UNK         0.0781 
    110 H110      -77.2853   26.2729  -69.0473 H         1 UNK         0.0836 
    111 H111      -78.3628   25.7612  -70.3225 H         1 UNK         0.0836 
    112 H112      -76.5980   24.0888  -73.6658 H         1 UNK         0.3022 
    113 H113      -75.7217   22.1678  -76.4319 H         1 UNK         0.0747 
    114 H114      -75.6003   20.1891  -74.9421 H         1 UNK         0.0793 
    115 H115      -74.1179   21.1198  -74.8198 H         1 UNK         0.0793 
    116 H116      -75.3195   21.2242  -73.5406 H         1 UNK         0.0793 
    117 H117      -77.6352   21.5693  -74.4827 H         1 UNK         0.3047 
    118 H118      -79.9663   21.9714  -75.3781 H         1 UNK         0.0822 
    119 H119      -79.4548   24.2316  -73.3363 H         1 UNK         0.0807 
    120 H120      -79.1948   22.5165  -73.0382 H         1 UNK         0.0807 
    121 H121      -80.8196   23.1207  -73.2866 H         1 UNK         0.0807 
    122 H122      -80.0011   24.7764  -76.1609 H         1 UNK         0.2946 
    123 H123      -81.8092   25.2744  -77.6753 H         1 UNK         0.1144 
    124 H124      -84.2581   25.5427  -77.9231 H         1 UNK         0.0793 
    125 H125      -84.5489   24.4954  -76.5351 H         1 UNK         0.0793 
    126 H126      -83.8338   23.8408  -78.0029 H         1 UNK         0.0793 
    127 H127      -83.4310   26.4212  -75.5445 H         1 UNK         0.2896 
@<TRIPOS>BOND
     1    1    2 1    
     2    1   67 1    
     3    1   68 1    
     4    1   69 1    
     5    2    3 2    
     6    2    4 am   BACKBONE|DICT|INTERRES
     7    4    5 1    
     8    4   70 1    
     9    5    6 1    
    10    5   65 1    
    11    5   71 1    
    12    6    7 1    
    13    6   72 1    
    14    6   73 1    
    15    7    8 1    
    16    8    9 1    
    17    8   74 1    
    18    8   75 1    
    19    9   10 ar   
    20    9   14 ar   
    21   10   11 ar   
    22   10   76 1    
    23   11   12 ar   
    24   11   48 1    
    25   12   13 ar   
    26   12   77 1    
    27   13   14 ar   
    28   13   15 1    
    29   14   78 1    
    30   15   16 1    
    31   15   79 1    
    32   15   80 1    
    33   16   17 1    
    34   17   18 1    
    35   17   81 1    
    36   17   82 1    
    37   18   19 1    
    38   18   22 1    
    39   18   83 1    
    40   19   20 am   BACKBONE|DICT|INTERRES
    41   19   21 2    
    42   20   84 1    
    43   20   85 1    
    44   22   23 am   BACKBONE|DICT|INTERRES
    45   22   86 1    
    46   23   24 2    
    47   23   25 1    
    48   25   26 1    
    49   25   27 1    
    50   25   87 1    
    51   26   88 1    
    52   26   89 1    
    53   26   90 1    
    54   27   28 am   BACKBONE|DICT|INTERRES
    55   27   91 1    
    56   28   29 2    
    57   28   30 1    
    58   30   31 1    
    59   30   32 1    
    60   30   92 1    
    61   31   93 1    
    62   31   94 1    
    63   31   95 1    
    64   32   33 am   BACKBONE|DICT|INTERRES
    65   32   96 1    
    66   33   34 2    
    67   33   35 1    
    68   35   36 1    
    69   35   37 1    
    70   35   97 1    
    71   36   98 1    
    72   36   99 1    
    73   36  100 1    
    74   37   38 am   BACKBONE|DICT|INTERRES
    75   37  101 1    
    76   38   39 2    
    77   38   40 1    
    78   40   41 1    
    79   40   42 1    
    80   40  102 1    
    81   41  103 1    
    82   41  104 1    
    83   41  105 1    
    84   42   43 am   BACKBONE|DICT|INTERRES
    85   42  106 1    
    86   43   44 2    
    87   43   45 1    
    88   45   46 1    
    89   45   49 1    
    90   45  107 1    
    91   46   47 1    
    92   46  108 1    
    93   46  109 1    
    94   47   48 1    
    95   48  110 1    
    96   48  111 1    
    97   49   50 am   BACKBONE|DICT|INTERRES
    98   49  112 1    
    99   50   51 2    
   100   50   52 1    
   101   52   53 1    
   102   52   54 1    
   103   52  113 1    
   104   53  114 1    
   105   53  115 1    
   106   53  116 1    
   107   54   55 am   BACKBONE|DICT|INTERRES
   108   54  117 1    
   109   55   56 2    
   110   55   57 1    
   111   57   58 1    
   112   57   59 1    
   113   57  118 1    
   114   58  119 1    
   115   58  120 1    
   116   58  121 1    
   117   59   60 am   BACKBONE|DICT|INTERRES
   118   59  122 1    
   119   60   61 2    
   120   60   62 1    
   121   62   63 1    
   122   62   64 1    
   123   62  123 1    
   124   63  124 1    
   125   63  125 1    
   126   63  126 1    
   127   64   65 am   BACKBONE|DICT|INTERRES
   128   64  127 1    
   129   65   66 2    
@<TRIPOS>SUBSTRUCTURE
     1 UNK         1 GROUP             0       ****    0 ROOT    
