@<TRIPOS>MOLECULE
3R135
127   129    1
SMALL
USER_CHARGES


@<TRIPOS>ATOM
      1 CA        -76.2976   23.3561  -73.2314 C.3       0 UNK        -0.1998 
      2 C         -77.7638   23.3032  -72.8367 C.2       0 UNK         0.4909 
      3 O         -78.3664   22.2302  -72.8698 O.2       0 UNK        -0.5240 
      4 N         -78.3348   24.4568  -72.4644 N.am      1 UNK        -0.4739 
      5 CA        -79.7235   24.6539  -72.0282 C.3       1 UNK         0.0864 
      6 C6        -79.9787   26.1280  -71.6223 C.3       11 UNK        -0.0881 
      7 S7        -78.9721   26.6103  -70.1806 S.3       11 UNK        -0.2682 
      8 C8        -79.2882   28.4022  -70.0924 C.3       11 UNK         0.0289 
      9 C9        -78.4912   29.1865  -71.1267 C.ar      11 UNK        -0.0687 
     10 C10       -79.1439   29.9089  -72.1306 C.ar      11 UNK        -0.0823 
     11 C11       -78.4114   30.6594  -73.0568 C.ar      11 UNK        -0.0830 
     12 C12       -77.0147   30.6680  -72.9866 C.ar      11 UNK        -0.1021 
     13 C13       -76.3521   29.9487  -71.9880 C.ar      11 UNK        -0.0753 
     14 C14       -77.0954   29.2189  -71.0562 C.ar      11 UNK        -0.0933 
     15 C15       -74.8333   29.9245  -71.9378 C.3       11 UNK         0.0166 
     16 S16       -74.1417   31.4556  -71.2522 S.3       11 UNK        -0.2615 
     17 C17       -72.4356   30.9258  -70.8708 C.3       11 UNK        -0.0865 
     18 CA        -71.4680   31.0490  -72.0785 C.3       10 UNK         0.0862 
     19 C         -69.9818   31.0288  -71.6124 C.2       10 UNK         0.5551 
     20 N         -69.1642   30.0662  -72.0231 N.am      10 UNK        -0.7319 
     21 O         -69.5601   31.9127  -70.8705 O.2       10 UNK        -0.5018 
     22 N         -71.7713   30.0547  -73.1233 N.am      10 UNK        -0.4509 
     23 C         -71.5336   30.2192  -74.4281 C.2       10 UNK         0.4899 
     24 O         -71.1038   31.2669  -74.9118 O.2       10 UNK        -0.4839 
     25 CA        -71.8030   29.0313  -75.3724 C.3       9 UNK         0.0222 
     26 CB        -70.5053   28.2463  -75.6439 C.3       9 UNK        -0.1966 
     27 N         -72.8941   28.1184  -74.9993 N.am      9 UNK        -0.4218 
     28 C         -72.9941   27.2776  -73.9589 C.2       9 UNK         0.5020 
     29 O         -72.2060   27.2583  -73.0128 O.2       9 UNK        -0.5274 
     30 CA        -74.1707   26.2818  -73.9806 C.3       8 UNK         0.0270 
     31 CB        -75.4357   26.8964  -73.3667 C.3       8 UNK        -0.1976 
     32 N         -74.4861   25.7940  -75.3251 N.am      8 UNK        -0.4313 
     33 C         -73.6925   24.9962  -76.0544 C.2       8 UNK         0.5041 
     34 O         -72.6125   24.5525  -75.6633 O.2       8 UNK        -0.5577 
     35 CA        -74.1915   24.6317  -77.4600 C.3       7 UNK         0.0284 
     36 CB        -75.1279   23.4157  -77.3989 C.3       7 UNK        -0.1958 
     37 N         -74.8819   25.7581  -78.0915 N.am      7 UNK        -0.4454 
     38 C         -74.2513   26.7794  -78.6893 C.2       7 UNK         0.5089 
     39 O         -73.0316   26.8344  -78.8474 O.2       7 UNK        -0.5125 
     40 CA        -75.1225   27.9494  -79.1810 C.3       6 UNK         0.0408 
     41 CB        -75.5990   27.6967  -80.6200 C.3       6 UNK        -0.1791 
     42 N         -76.2813   28.2147  -78.3245 N.am      6 UNK        -0.4762 
     43 C         -76.2167   28.6350  -77.0518 C.2       6 UNK         0.5007 
     44 O         -75.1628   28.8680  -76.4630 O.2       6 UNK        -0.5032 
     45 CA        -77.5514   28.7797  -76.2955 C.3       5 UNK         0.0783 
     46 C46       -78.0820   30.2281  -76.4218 C.3       11 UNK        -0.0857 
     47 S47       -79.6563   30.4830  -75.5328 S.3       11 UNK        -0.2512 
     48 C48       -79.1350   31.4876  -74.1085 C.3       11 UNK         0.0225 
     49 N         -78.5508   27.7910  -76.7134 N.am      5 UNK        -0.4615 
     50 C         -78.4274   26.4604  -76.6415 C.2       4 UNK         0.5053 
     51 O         -77.4048   25.8825  -76.2602 O.2       4 UNK        -0.5105 
     52 CA        -79.6721   25.6831  -77.0909 C.3       4 UNK         0.0263 
     53 CB        -79.9366   25.8370  -78.6048 C.3       4 UNK        -0.1981 
     54 N         -79.6644   24.2838  -76.6564 N.am      4 UNK        -0.4224 
     55 C         -79.0573   23.2188  -77.2036 C.2       3 UNK         0.4895 
     56 O         -78.3840   23.2603  -78.2335 O.2       3 UNK        -0.5091 
     57 CA        -79.2401   21.8560  -76.4981 C.3       3 UNK         0.0250 
     58 CB        -77.8820   21.2239  -76.1483 C.3       3 UNK        -0.1996 
     59 N         -80.0673   21.9269  -75.2873 N.am      3 UNK        -0.4254 
     60 C         -81.4080   21.9934  -75.2796 C.2       2 UNK         0.5004 
     61 O         -82.1007   21.8844  -76.2915 O.2       2 UNK        -0.5226 
     62 CA        -82.0974   22.2734  -73.9293 C.3       2 UNK         0.0269 
     63 CB        -82.6189   20.9664  -73.3109 C.3       2 UNK        -0.1926 
     64 N         -81.2401   22.9587  -72.9548 N.am      2 UNK        -0.4687 
     65 C         -80.7239   24.1873  -73.1059 C.2       1 UNK         0.5165 
     66 O         -80.9636   24.9108  -74.0739 O.2       1 UNK        -0.5079 
     67 H67       -75.8650   22.3559  -73.2401 H         1 UNK         0.0900 
     68 H68       -75.7266   23.9607  -72.5277 H         1 UNK         0.0900 
     69 H69       -76.1925   23.7808  -74.2288 H         1 UNK         0.0900 
     70 H70       -77.7755   25.2966  -72.4554 H         1 UNK         0.2959 
     71 H71       -79.8767   24.0329  -71.1428 H         1 UNK         0.1079 
     72 H72       -81.0287   26.2819  -71.3654 H         1 UNK         0.0837 
     73 H73       -79.7610   26.8021  -72.4538 H         1 UNK         0.0837 
     74 H74       -79.0121   28.7554  -69.0980 H         1 UNK         0.0685 
     75 H75       -80.3587   28.5871  -70.1950 H         1 UNK         0.0685 
     76 H76       -80.2240   29.9007  -72.1851 H         1 UNK         0.1434 
     77 H77       -76.4395   31.2398  -73.7021 H         1 UNK         0.1329 
     78 H78       -76.5888   28.6622  -70.2795 H         1 UNK         0.1335 
     79 H79       -74.4874   29.0744  -71.3483 H         1 UNK         0.0680 
     80 H80       -74.4489   29.7845  -72.9477 H         1 UNK         0.0680 
     81 H81       -72.4351   29.9090  -70.4743 H         1 UNK         0.1032 
     82 H82       -72.1001   31.5599  -70.0475 H         1 UNK         0.1032 
     83 H83       -71.6176   32.0422  -72.5067 H         1 UNK         0.0461 
     84 H84       -69.5019   29.3348  -72.6275 H         1 UNK         0.3453 
     85 H85       -68.2037   30.0687  -71.7177 H         1 UNK         0.3453 
     86 H86       -72.0430   29.1259  -72.8136 H         1 UNK         0.2984 
     87 H87       -72.1198   29.4684  -76.3208 H         1 UNK         0.0554 
     88 H88       -69.7177   28.9062  -76.0103 H         1 UNK         0.0847 
     89 H89       -70.6616   27.4775  -76.4012 H         1 UNK         0.0847 
     90 H90       -70.1281   27.7580  -74.7450 H         1 UNK         0.0847 
     91 H91       -73.6849   28.1460  -75.6410 H         1 UNK         0.3141 
     92 H92       -73.8825   25.4180  -73.3781 H         1 UNK         0.0743 
     93 H93       -75.3109   27.0465  -72.2945 H         1 UNK         0.0784 
     94 H94       -75.6685   27.8603  -73.8159 H         1 UNK         0.0784 
     95 H95       -76.3067   26.2584  -73.5042 H         1 UNK         0.0784 
     96 H96       -75.3854   26.0568  -75.7138 H         1 UNK         0.3213 
     97 H97       -73.3240   24.3603  -78.0660 H         1 UNK         0.0855 
     98 H98       -76.0112   23.6183  -76.7936 H         1 UNK         0.0814 
     99 H99       -74.6228   22.5544  -76.9599 H         1 UNK         0.0814 
    100 H100      -75.4660   23.1228  -78.3930 H         1 UNK         0.0814 
    101 H101      -75.8857   25.8036  -77.9707 H         1 UNK         0.3105 
    102 H102      -74.4988   28.8460  -79.1817 H         1 UNK         0.0547 
    103 H103      -74.7525   27.5187  -81.2848 H         1 UNK         0.0837 
    104 H104      -76.2515   26.8249  -80.6841 H         1 UNK         0.0837 
    105 H105      -76.1429   28.5546  -81.0155 H         1 UNK         0.0837 
    106 H106      -77.1934   28.0450  -78.7234 H         1 UNK         0.3020 
    107 H107      -77.3441   28.5900  -75.2410 H         1 UNK         0.1245 
    108 H108      -78.2512   30.4825  -77.4701 H         1 UNK         0.0781 
    109 H109      -77.3402   30.9414  -76.0577 H         1 UNK         0.0781 
    110 H110      -80.0202   31.9427  -73.6617 H         1 UNK         0.0836 
    111 H111      -78.5127   32.3175  -74.4471 H         1 UNK         0.0836 
    112 H112      -79.4328   28.1779  -77.0175 H         1 UNK         0.3022 
    113 H113      -80.5195   26.1271  -76.5659 H         1 UNK         0.0747 
    114 H114      -80.7817   25.2272  -78.9243 H         1 UNK         0.0793 
    115 H115      -79.0708   25.5512  -79.2029 H         1 UNK         0.0793 
    116 H116      -80.1735   26.8701  -78.8606 H         1 UNK         0.0793 
    117 H117      -80.1521   24.1385  -75.7794 H         1 UNK         0.3047 
    118 H118      -79.7362   21.1972  -77.2139 H         1 UNK         0.0822 
    119 H119      -78.0064   20.2534  -75.6680 H         1 UNK         0.0807 
    120 H120      -77.3022   21.8574  -75.4793 H         1 UNK         0.0807 
    121 H121      -77.2815   21.0656  -77.0451 H         1 UNK         0.0807 
    122 H122      -79.5719   22.0095  -74.4027 H         1 UNK         0.2946 
    123 H123      -82.9514   22.9229  -74.1351 H         1 UNK         0.1144 
    124 H124      -83.2826   20.4447  -74.0021 H         1 UNK         0.0793 
    125 H125      -83.1877   21.1564  -72.4005 H         1 UNK         0.0793 
    126 H126      -81.8045   20.2841  -73.0635 H         1 UNK         0.0793 
    127 H127      -80.9390   22.4084  -72.1622 H         1 UNK         0.2896 
@<TRIPOS>BOND
     1    1    2 1    
     2    1   67 1    
     3    1   68 1    
     4    1   69 1    
     5    2    3 2    
     6    2    4 am   BACKBONE|DICT|INTERRES
     7    4    5 1    
     8    4   70 1    
     9    5    6 1    
    10    5   65 1    
    11    5   71 1    
    12    6    7 1    
    13    6   72 1    
    14    6   73 1    
    15    7    8 1    
    16    8    9 1    
    17    8   74 1    
    18    8   75 1    
    19    9   10 ar   
    20    9   14 ar   
    21   10   11 ar   
    22   10   76 1    
    23   11   12 ar   
    24   11   48 1    
    25   12   13 ar   
    26   12   77 1    
    27   13   14 ar   
    28   13   15 1    
    29   14   78 1    
    30   15   16 1    
    31   15   79 1    
    32   15   80 1    
    33   16   17 1    
    34   17   18 1    
    35   17   81 1    
    36   17   82 1    
    37   18   19 1    
    38   18   22 1    
    39   18   83 1    
    40   19   20 am   BACKBONE|DICT|INTERRES
    41   19   21 2    
    42   20   84 1    
    43   20   85 1    
    44   22   23 am   BACKBONE|DICT|INTERRES
    45   22   86 1    
    46   23   24 2    
    47   23   25 1    
    48   25   26 1    
    49   25   27 1    
    50   25   87 1    
    51   26   88 1    
    52   26   89 1    
    53   26   90 1    
    54   27   28 am   BACKBONE|DICT|INTERRES
    55   27   91 1    
    56   28   29 2    
    57   28   30 1    
    58   30   31 1    
    59   30   32 1    
    60   30   92 1    
    61   31   93 1    
    62   31   94 1    
    63   31   95 1    
    64   32   33 am   BACKBONE|DICT|INTERRES
    65   32   96 1    
    66   33   34 2    
    67   33   35 1    
    68   35   36 1    
    69   35   37 1    
    70   35   97 1    
    71   36   98 1    
    72   36   99 1    
    73   36  100 1    
    74   37   38 am   BACKBONE|DICT|INTERRES
    75   37  101 1    
    76   38   39 2    
    77   38   40 1    
    78   40   41 1    
    79   40   42 1    
    80   40  102 1    
    81   41  103 1    
    82   41  104 1    
    83   41  105 1    
    84   42   43 am   BACKBONE|DICT|INTERRES
    85   42  106 1    
    86   43   44 2    
    87   43   45 1    
    88   45   46 1    
    89   45   49 1    
    90   45  107 1    
    91   46   47 1    
    92   46  108 1    
    93   46  109 1    
    94   47   48 1    
    95   48  110 1    
    96   48  111 1    
    97   49   50 am   BACKBONE|DICT|INTERRES
    98   49  112 1    
    99   50   51 2    
   100   50   52 1    
   101   52   53 1    
   102   52   54 1    
   103   52  113 1    
   104   53  114 1    
   105   53  115 1    
   106   53  116 1    
   107   54   55 am   BACKBONE|DICT|INTERRES
   108   54  117 1    
   109   55   56 2    
   110   55   57 1    
   111   57   58 1    
   112   57   59 1    
   113   57  118 1    
   114   58  119 1    
   115   58  120 1    
   116   58  121 1    
   117   59   60 am   BACKBONE|DICT|INTERRES
   118   59  122 1    
   119   60   61 2    
   120   60   62 1    
   121   62   63 1    
   122   62   64 1    
   123   62  123 1    
   124   63  124 1    
   125   63  125 1    
   126   63  126 1    
   127   64   65 am   BACKBONE|DICT|INTERRES
   128   64  127 1    
   129   65   66 2    
@<TRIPOS>SUBSTRUCTURE
     1 UNK         1 GROUP             0       ****    0 ROOT    
