@<TRIPOS>MOLECULE
3R135
127   129    1
SMALL
USER_CHARGES


@<TRIPOS>ATOM
      1 CA        -78.9515   30.2175  -76.4518 C.3       0 UNK        -0.1998 
      2 C         -79.1121   29.3005  -75.2496 C.2       0 UNK         0.4909 
      3 O         -78.1404   28.6927  -74.8039 O.2       0 UNK        -0.5240 
      4 N         -80.3374   29.1974  -74.7252 N.am      1 UNK        -0.4739 
      5 CA        -80.6915   28.2719  -73.6470 C.3       1 UNK         0.0864 
      6 C6        -81.8176   28.8254  -72.7424 C.3       11 UNK        -0.0881 
      7 S7        -81.3895   30.4212  -71.9695 S.3       11 UNK        -0.2682 
      8 C8        -80.7193   29.8965  -70.3609 C.3       11 UNK         0.0289 
      9 C9        -79.2316   29.5783  -70.4319 C.ar      11 UNK        -0.0687 
     10 C10       -78.7786   28.2542  -70.4088 C.ar      11 UNK        -0.0823 
     11 C11       -77.4074   27.9762  -70.3878 C.ar      11 UNK        -0.0830 
     12 C12       -76.4938   29.0344  -70.3865 C.ar      11 UNK        -0.1021 
     13 C13       -76.9296   30.3627  -70.4330 C.ar      11 UNK        -0.0753 
     14 C14       -78.3026   30.6236  -70.4566 C.ar      11 UNK        -0.0933 
     15 C15       -75.9442   31.5279  -70.3694 C.3       11 UNK         0.0166 
     16 S16       -74.3562   31.2243  -71.2169 S.3       11 UNK        -0.2615 
     17 C17       -74.7869   31.4867  -72.9736 C.3       11 UNK        -0.0865 
     18 CA        -74.9535   30.1832  -73.8196 C.3       10 UNK         0.0862 
     19 C         -75.1880   30.4734  -75.3365 C.2       10 UNK         0.5551 
     20 N         -75.8743   31.5548  -75.6847 N.am      10 UNK        -0.7319 
     21 O         -74.7725   29.7199  -76.2152 O.2       10 UNK        -0.5018 
     22 N         -73.8898   29.1899  -73.5880 N.am      10 UNK        -0.4509 
     23 C         -72.5808   29.3678  -73.8116 C.2       10 UNK         0.4899 
     24 O         -72.0810   30.4071  -74.2434 O.2       10 UNK        -0.4839 
     25 CA        -71.6719   28.1713  -73.5153 C.3       9 UNK         0.0222 
     26 CB        -71.8990   27.5788  -72.1113 C.3       9 UNK        -0.1966 
     27 N         -71.8866   27.1569  -74.5398 N.am      9 UNK        -0.4218 
     28 C         -70.9386   26.3769  -75.0738 C.2       9 UNK         0.5020 
     29 O         -69.7633   26.3663  -74.7050 O.2       9 UNK        -0.5274 
     30 CA        -71.3711   25.4704  -76.2369 C.3       8 UNK         0.0270 
     31 CB        -71.9750   24.1585  -75.7118 C.3       8 UNK        -0.1976 
     32 N         -72.3404   26.1544  -77.0949 N.am      8 UNK        -0.4313 
     33 C         -72.0148   26.9793  -78.0989 C.2       8 UNK         0.5041 
     34 O         -70.8563   27.1473  -78.4839 O.2       8 UNK        -0.5577 
     35 CA        -73.1385   27.7927  -78.7720 C.3       7 UNK         0.0284 
     36 CB        -73.2254   27.5125  -80.2870 C.3       7 UNK        -0.1958 
     37 N         -74.4496   27.6851  -78.1186 N.am      7 UNK        -0.4454 
     38 C         -75.2990   26.6502  -78.1065 C.2       7 UNK         0.5089 
     39 O         -75.1096   25.5820  -78.6896 O.2       7 UNK        -0.5125 
     40 CA        -76.5589   26.8353  -77.2461 C.3       6 UNK         0.0408 
     41 CB        -77.8360   26.6216  -78.0749 C.3       6 UNK        -0.1791 
     42 N         -76.5861   25.9378  -76.0924 N.am      6 UNK        -0.4762 
     43 C         -75.6409   25.8134  -75.1495 C.2       6 UNK         0.5007 
     44 O         -74.5780   26.4379  -75.1472 O.2       6 UNK        -0.5032 
     45 CA        -75.9264   24.8029  -74.0246 C.3       5 UNK         0.0783 
     46 C46       -76.7649   25.4478  -72.8881 C.3       11 UNK        -0.0857 
     47 S47       -75.6930   26.1328  -71.5876 S.3       11 UNK        -0.2512 
     48 C48       -76.9019   26.5424  -70.2857 C.3       11 UNK         0.0225 
     49 N         -76.5748   23.6021  -74.5590 N.am      5 UNK        -0.4615 
     50 C         -75.9415   22.4697  -74.8939 C.2       4 UNK         0.5053 
     51 O         -74.7270   22.3101  -74.7772 O.2       4 UNK        -0.5105 
     52 CA        -76.7921   21.2957  -75.4180 C.3       4 UNK         0.0263 
     53 CB        -76.9534   20.2266  -74.3244 C.3       4 UNK        -0.1981 
     54 N         -78.1209   21.7008  -75.8804 N.am      4 UNK        -0.4224 
     55 C         -78.3783   22.2513  -77.0747 C.2       3 UNK         0.4895 
     56 O         -77.5353   22.3952  -77.9596 O.2       3 UNK        -0.5091 
     57 CA        -79.8174   22.7494  -77.3166 C.3       3 UNK         0.0250 
     58 CB        -80.6411   21.6754  -78.0455 C.3       3 UNK        -0.1996 
     59 N         -80.5349   23.1727  -76.1041 N.am      3 UNK        -0.4254 
     60 C         -80.1227   24.1393  -75.2728 C.2       2 UNK         0.5004 
     61 O         -79.0473   24.7271  -75.3976 O.2       2 UNK        -0.5226 
     62 CA        -81.0192   24.4578  -74.0649 C.3       2 UNK         0.0269 
     63 CB        -80.7368   23.4707  -72.9200 C.3       2 UNK        -0.1926 
     64 N         -80.7938   25.8221  -73.5774 N.am      2 UNK        -0.4687 
     65 C         -81.1149   26.9269  -74.2635 C.2       1 UNK         0.5165 
     66 O         -81.7515   26.9121  -75.3215 O.2       1 UNK        -0.5079 
     67 H67       -78.1660   29.8473  -77.1101 H         1 UNK         0.0900 
     68 H68       -78.6799   31.2202  -76.1244 H         1 UNK         0.0900 
     69 H69       -79.8728   30.2819  -77.0303 H         1 UNK         0.0900 
     70 H70       -81.1088   29.6971  -75.1432 H         1 UNK         0.2959 
     71 H71       -79.8103   28.0994  -73.0259 H         1 UNK         0.1079 
     72 H72       -82.7312   28.9748  -73.3216 H         1 UNK         0.0837 
     73 H73       -82.0752   28.1065  -71.9623 H         1 UNK         0.0837 
     74 H74       -80.8727   30.7059  -69.6455 H         1 UNK         0.0685 
     75 H75       -81.2843   29.0480  -69.9725 H         1 UNK         0.0685 
     76 H76       -79.4935   27.4438  -70.3729 H         1 UNK         0.1434 
     77 H77       -75.4363   28.8158  -70.3342 H         1 UNK         0.1329 
     78 H78       -78.6549   31.6462  -70.4628 H         1 UNK         0.1335 
     79 H79       -76.3945   32.4381  -70.7685 H         1 UNK         0.0680 
     80 H80       -75.7329   31.7290  -69.3185 H         1 UNK         0.0680 
     81 H81       -74.0046   32.1132  -73.4059 H         1 UNK         0.1032 
     82 H82       -75.6989   32.0827  -73.0180 H         1 UNK         0.1032 
     83 H83       -75.8659   29.6912  -73.4807 H         1 UNK         0.0461 
     84 H84       -76.2409   32.1914  -74.9968 H         1 UNK         0.3453 
     85 H85       -76.0163   31.7408  -76.6643 H         1 UNK         0.3453 
     86 H86       -74.2109   28.2814  -73.2867 H         1 UNK         0.2984 
     87 H87       -70.6427   28.5331  -73.5689 H         1 UNK         0.0554 
     88 H88       -71.1373   26.8365  -71.8727 H         1 UNK         0.0847 
     89 H89       -72.8703   27.0929  -72.0221 H         1 UNK         0.0847 
     90 H90       -71.8474   28.3544  -71.3460 H         1 UNK         0.0847 
     91 H91       -72.8391   27.0738  -74.8911 H         1 UNK         0.3141 
     92 H92       -70.4832   25.2208  -76.8219 H         1 UNK         0.0743 
     93 H93       -72.8382   24.3345  -75.0705 H         1 UNK         0.0784 
     94 H94       -72.2936   23.5110  -76.5289 H         1 UNK         0.0784 
     95 H95       -71.2439   23.6029  -75.1233 H         1 UNK         0.0784 
     96 H96       -73.3126   26.1039  -76.8136 H         1 UNK         0.3213 
     97 H97       -72.8509   28.8386  -78.6532 H         1 UNK         0.0855 
     98 H98       -72.2846   27.7583  -80.7811 H         1 UNK         0.0814 
     99 H99       -74.0040   28.1118  -80.7588 H         1 UNK         0.0814 
    100 H100      -73.4320   26.4631  -80.4979 H         1 UNK         0.0814 
    101 H101      -74.6728   28.4712  -77.5050 H         1 UNK         0.3105 
    102 H102      -76.5774   27.8552  -76.8608 H         1 UNK         0.0547 
    103 H103      -77.8593   27.2891  -78.9370 H         1 UNK         0.0837 
    104 H104      -77.9051   25.5989  -78.4483 H         1 UNK         0.0837 
    105 H105      -78.7295   26.8222  -77.4827 H         1 UNK         0.0837 
    106 H106      -77.4494   25.4154  -75.9618 H         1 UNK         0.3020 
    107 H107      -74.9566   24.5087  -73.6160 H         1 UNK         0.1245 
    108 H108      -77.3972   24.6942  -72.4162 H         1 UNK         0.0781 
    109 H109      -77.4452   26.2212  -73.2538 H         1 UNK         0.0781 
    110 H110      -76.4172   26.4197  -69.3162 H         1 UNK         0.0836 
    111 H111      -77.7262   25.8279  -70.3038 H         1 UNK         0.0836 
    112 H112      -77.5639   23.6960  -74.7635 H         1 UNK         0.3022 
    113 H113      -76.2500   20.8477  -76.2538 H         1 UNK         0.0747 
    114 H114      -77.4976   19.3579  -74.6954 H         1 UNK         0.0793 
    115 H115      -75.9812   19.8729  -73.9778 H         1 UNK         0.0793 
    116 H116      -77.4875   20.6135  -73.4556 H         1 UNK         0.0793 
    117 H117      -78.8820   21.6046  -75.2243 H         1 UNK         0.3047 
    118 H118      -79.7446   23.6230  -77.9682 H         1 UNK         0.0822 
    119 H119      -81.6255   22.0508  -78.3256 H         1 UNK         0.0807 
    120 H120      -80.7817   20.7864  -77.4294 H         1 UNK         0.0807 
    121 H121      -80.1449   21.3595  -78.9646 H         1 UNK         0.0807 
    122 H122      -81.4191   22.7182  -75.9240 H         1 UNK         0.2946 
    123 H123      -82.0642   24.3675  -74.3707 H         1 UNK         0.1144 
    124 H124      -80.9340   22.4430  -73.2278 H         1 UNK         0.0793 
    125 H125      -81.3716   23.6727  -72.0570 H         1 UNK         0.0793 
    126 H126      -79.6981   23.5182  -72.5901 H         1 UNK         0.0793 
    127 H127      -80.2659   25.9105  -72.7225 H         1 UNK         0.2896 
@<TRIPOS>BOND
     1    1    2 1    
     2    1   67 1    
     3    1   68 1    
     4    1   69 1    
     5    2    3 2    
     6    2    4 am   BACKBONE|DICT|INTERRES
     7    4    5 1    
     8    4   70 1    
     9    5    6 1    
    10    5   65 1    
    11    5   71 1    
    12    6    7 1    
    13    6   72 1    
    14    6   73 1    
    15    7    8 1    
    16    8    9 1    
    17    8   74 1    
    18    8   75 1    
    19    9   10 ar   
    20    9   14 ar   
    21   10   11 ar   
    22   10   76 1    
    23   11   12 ar   
    24   11   48 1    
    25   12   13 ar   
    26   12   77 1    
    27   13   14 ar   
    28   13   15 1    
    29   14   78 1    
    30   15   16 1    
    31   15   79 1    
    32   15   80 1    
    33   16   17 1    
    34   17   18 1    
    35   17   81 1    
    36   17   82 1    
    37   18   19 1    
    38   18   22 1    
    39   18   83 1    
    40   19   20 am   BACKBONE|DICT|INTERRES
    41   19   21 2    
    42   20   84 1    
    43   20   85 1    
    44   22   23 am   BACKBONE|DICT|INTERRES
    45   22   86 1    
    46   23   24 2    
    47   23   25 1    
    48   25   26 1    
    49   25   27 1    
    50   25   87 1    
    51   26   88 1    
    52   26   89 1    
    53   26   90 1    
    54   27   28 am   BACKBONE|DICT|INTERRES
    55   27   91 1    
    56   28   29 2    
    57   28   30 1    
    58   30   31 1    
    59   30   32 1    
    60   30   92 1    
    61   31   93 1    
    62   31   94 1    
    63   31   95 1    
    64   32   33 am   BACKBONE|DICT|INTERRES
    65   32   96 1    
    66   33   34 2    
    67   33   35 1    
    68   35   36 1    
    69   35   37 1    
    70   35   97 1    
    71   36   98 1    
    72   36   99 1    
    73   36  100 1    
    74   37   38 am   BACKBONE|DICT|INTERRES
    75   37  101 1    
    76   38   39 2    
    77   38   40 1    
    78   40   41 1    
    79   40   42 1    
    80   40  102 1    
    81   41  103 1    
    82   41  104 1    
    83   41  105 1    
    84   42   43 am   BACKBONE|DICT|INTERRES
    85   42  106 1    
    86   43   44 2    
    87   43   45 1    
    88   45   46 1    
    89   45   49 1    
    90   45  107 1    
    91   46   47 1    
    92   46  108 1    
    93   46  109 1    
    94   47   48 1    
    95   48  110 1    
    96   48  111 1    
    97   49   50 am   BACKBONE|DICT|INTERRES
    98   49  112 1    
    99   50   51 2    
   100   50   52 1    
   101   52   53 1    
   102   52   54 1    
   103   52  113 1    
   104   53  114 1    
   105   53  115 1    
   106   53  116 1    
   107   54   55 am   BACKBONE|DICT|INTERRES
   108   54  117 1    
   109   55   56 2    
   110   55   57 1    
   111   57   58 1    
   112   57   59 1    
   113   57  118 1    
   114   58  119 1    
   115   58  120 1    
   116   58  121 1    
   117   59   60 am   BACKBONE|DICT|INTERRES
   118   59  122 1    
   119   60   61 2    
   120   60   62 1    
   121   62   63 1    
   122   62   64 1    
   123   62  123 1    
   124   63  124 1    
   125   63  125 1    
   126   63  126 1    
   127   64   65 am   BACKBONE|DICT|INTERRES
   128   64  127 1    
   129   65   66 2    
@<TRIPOS>SUBSTRUCTURE
     1 UNK         1 GROUP             0       ****    0 ROOT    
