@<TRIPOS>MOLECULE
3R135
127   129    1
SMALL
USER_CHARGES


@<TRIPOS>ATOM
      1 CA        -83.9273   24.8840  -70.3490 C.3       0 UNK        -0.1998 
      2 C         -82.8176   25.5870  -71.1150 C.2       0 UNK         0.4909 
      3 O         -81.8349   24.9446  -71.4914 O.2       0 UNK        -0.5240 
      4 N         -82.9778   26.8952  -71.3690 N.am      1 UNK        -0.4739 
      5 CA        -82.0485   27.8241  -72.0414 C.3       1 UNK         0.0864 
      6 C6        -80.6951   27.9840  -71.2889 C.3       11 UNK        -0.0881 
      7 S7        -80.7661   29.2557  -69.9801 S.3       11 UNK        -0.2682 
      8 C8        -80.4573   30.8029  -70.9040 C.3       11 UNK         0.0289 
      9 C9        -79.1172   30.7944  -71.6272 C.ar      11 UNK        -0.0687 
     10 C10       -79.0619   30.4718  -72.9851 C.ar      11 UNK        -0.0823 
     11 C11       -77.8349   30.3621  -73.6405 C.ar      11 UNK        -0.0830 
     12 C12       -76.6575   30.6587  -72.9488 C.ar      11 UNK        -0.1021 
     13 C13       -76.6961   31.0103  -71.5928 C.ar      11 UNK        -0.0753 
     14 C14       -77.9326   31.0740  -70.9394 C.ar      11 UNK        -0.0933 
     15 C15       -75.4188   31.3198  -70.8125 C.3       11 UNK         0.0166 
     16 S16       -74.0003   30.2482  -71.2306 S.3       11 UNK        -0.2615 
     17 C17       -74.6998   28.5871  -70.9327 C.3       11 UNK        -0.0865 
     18 CA        -73.6120   27.4838  -70.7780 C.3       10 UNK         0.0862 
     19 C         -74.2180   26.1001  -70.3910 C.2       10 UNK         0.5551 
     20 N         -73.6528   24.9847  -70.8373 N.am      10 UNK        -0.7319 
     21 O         -75.1833   26.0319  -69.6338 O.2       10 UNK        -0.5018 
     22 N         -72.6419   27.4395  -71.8910 N.am      10 UNK        -0.4509 
     23 C         -72.9245   27.2472  -73.1860 C.2       10 UNK         0.4899 
     24 O         -74.0601   27.0968  -73.6371 O.2       10 UNK        -0.4839 
     25 CA        -71.7132   27.1951  -74.1263 C.3       9 UNK         0.0222 
     26 CB        -71.0539   25.8065  -74.0914 C.3       9 UNK        -0.1966 
     27 N         -72.1282   27.4766  -75.4995 N.am      9 UNK        -0.4218 
     28 C         -71.7192   28.5243  -76.2273 C.2       9 UNK         0.5020 
     29 O         -70.9313   29.3779  -75.8132 O.2       9 UNK        -0.5274 
     30 CA        -72.2849   28.6419  -77.6582 C.3       8 UNK         0.0270 
     31 CB        -71.4741   29.6028  -78.5543 C.3       8 UNK        -0.1976 
     32 N         -72.4668   27.3448  -78.3197 N.am      8 UNK        -0.4313 
     33 C         -71.5341   26.4145  -78.5844 C.2       8 UNK         0.5041 
     34 O         -70.3322   26.5660  -78.3608 O.2       8 UNK        -0.5577 
     35 CA        -72.0139   25.0757  -79.1805 C.3       7 UNK         0.0284 
     36 CB        -71.5896   23.8990  -78.2827 C.3       7 UNK        -0.1958 
     37 N         -73.4690   25.0348  -79.3452 N.am      7 UNK        -0.4454 
     38 C         -74.1275   25.2952  -80.4835 C.2       7 UNK         0.5089 
     39 O         -73.5741   25.5152  -81.5607 O.2       7 UNK        -0.5125 
     40 CA        -75.6674   25.3463  -80.4045 C.3       6 UNK         0.0408 
     41 CB        -76.2706   24.0026  -80.8425 C.3       6 UNK        -0.1791 
     42 N         -76.1766   25.6929  -79.0724 N.am      6 UNK        -0.4762 
     43 C         -75.9730   26.8655  -78.4517 C.2       6 UNK         0.5007 
     44 O         -75.3843   27.8131  -78.9704 O.2       6 UNK        -0.5032 
     45 CA        -76.4162   26.9730  -76.9800 C.3       5 UNK         0.0783 
     46 C46       -77.7856   27.6793  -76.8632 C.3       11 UNK        -0.0857 
     47 S47       -78.1677   28.0815  -75.1300 S.3       11 UNK        -0.2512 
     48 C48       -77.7881   29.8624  -75.0752 C.3       11 UNK         0.0225 
     49 N         -76.3866   25.6725  -76.2965 N.am      5 UNK        -0.4615 
     50 C         -75.2636   24.9895  -76.0297 C.2       4 UNK         0.5053 
     51 O         -74.1472   25.3811  -76.3794 O.2       4 UNK        -0.5105 
     52 CA        -75.3911   23.6171  -75.3367 C.3       4 UNK         0.0263 
     53 CB        -74.3069   23.4103  -74.2611 C.3       4 UNK        -0.1981 
     54 N         -76.7271   23.3081  -74.8088 N.am      4 UNK        -0.4224 
     55 C         -77.3777   23.9102  -73.8023 C.2       3 UNK         0.4895 
     56 O         -76.9398   24.8540  -73.1450 O.2       3 UNK        -0.5091 
     57 CA        -78.7800   23.3594  -73.4929 C.3       3 UNK         0.0250 
     58 CB        -78.9092   22.9740  -72.0093 C.3       3 UNK        -0.1996 
     59 N         -79.8366   24.3130  -73.8327 N.am      3 UNK        -0.4254 
     60 C         -80.0767   24.8137  -75.0570 C.2       2 UNK         0.5004 
     61 O         -79.4021   24.5350  -76.0503 O.2       2 UNK        -0.5226 
     62 CA        -81.2687   25.7742  -75.2178 C.3       2 UNK         0.0269 
     63 CB        -82.4318   25.0764  -75.9418 C.3       2 UNK        -0.1926 
     64 N         -81.7368   26.2611  -73.9208 N.am      2 UNK        -0.4687 
     65 C         -81.8097   27.5383  -73.5429 C.2       1 UNK         0.5165 
     66 O         -81.6887   28.4843  -74.3213 O.2       1 UNK        -0.5079 
     67 H67       -84.3450   24.0773  -70.9506 H         1 UNK         0.0900 
     68 H68       -84.7360   25.5648  -70.0841 H         1 UNK         0.0900 
     69 H69       -83.5313   24.4537  -69.4296 H         1 UNK         0.0900 
     70 H70       -83.8323   27.3329  -71.0525 H         1 UNK         0.2959 
     71 H71       -82.5581   28.7892  -72.0317 H         1 UNK         0.1079 
     72 H72       -80.3938   27.0455  -70.8227 H         1 UNK         0.0837 
     73 H73       -79.8693   28.2128  -71.9612 H         1 UNK         0.0837 
     74 H74       -81.2713   30.9673  -71.6117 H         1 UNK         0.0685 
     75 H75       -80.4891   31.6413  -70.2066 H         1 UNK         0.0685 
     76 H76       -79.9719   30.2404  -73.5210 H         1 UNK         0.1434 
     77 H77       -75.7069   30.5824  -73.4585 H         1 UNK         0.1329 
     78 H78       -77.9759   31.3255  -69.8884 H         1 UNK         0.1335 
     79 H79       -75.1393   32.3569  -71.0011 H         1 UNK         0.0680 
     80 H80       -75.6001   31.2392  -69.7394 H         1 UNK         0.0680 
     81 H81       -75.3840   28.3382  -71.7458 H         1 UNK         0.1032 
     82 H82       -75.3146   28.6382  -70.0321 H         1 UNK         0.1032 
     83 H83       -73.0153   27.7605  -69.9081 H         1 UNK         0.0461 
     84 H84       -72.8510   25.0279  -71.4434 H         1 UNK         0.3453 
     85 H85       -74.0429   24.0950  -70.5713 H         1 UNK         0.3453 
     86 H86       -71.6751   27.5471  -71.6198 H         1 UNK         0.2984 
     87 H87       -70.9860   27.9331  -73.7817 H         1 UNK         0.0554 
     88 H88       -70.7293   25.5436  -73.0841 H         1 UNK         0.0847 
     89 H89       -70.1734   25.7742  -74.7335 H         1 UNK         0.0847 
     90 H90       -71.7379   25.0300  -74.4313 H         1 UNK         0.0847 
     91 H91       -72.8289   26.8447  -75.8787 H         1 UNK         0.3141 
     92 H92       -73.2840   29.0658  -77.5474 H         1 UNK         0.0743 
     93 H93       -71.4516   30.6080  -78.1317 H         1 UNK         0.0784 
     94 H94       -70.4404   29.2745  -78.6677 H         1 UNK         0.0784 
     95 H95       -71.9127   29.6814  -79.5491 H         1 UNK         0.0784 
     96 H96       -73.4232   27.1354  -78.5785 H         1 UNK         0.3213 
     97 H97       -71.5242   24.9585  -80.1496 H         1 UNK         0.0855 
     98 H98       -70.5042   23.8532  -78.1845 H         1 UNK         0.0814 
     99 H99       -71.9156   22.9452  -78.6974 H         1 UNK         0.0814 
    100 H100      -72.0021   23.9873  -77.2769 H         1 UNK         0.0814 
    101 H101      -74.0011   24.8975  -78.4945 H         1 UNK         0.3105 
    102 H102      -76.0057   26.1162  -81.1012 H         1 UNK         0.0547 
    103 H103      -75.9328   23.7317  -81.8440 H         1 UNK         0.0837 
    104 H104      -75.9830   23.1916  -80.1723 H         1 UNK         0.0837 
    105 H105      -77.3594   24.0458  -80.8719 H         1 UNK         0.0837 
    106 H106      -76.6720   24.9699  -78.5695 H         1 UNK         0.3020 
    107 H107      -75.6742   27.6063  -76.4865 H         1 UNK         0.1245 
    108 H108      -78.5817   27.0449  -77.2573 H         1 UNK         0.0781 
    109 H109      -77.8075   28.5982  -77.4530 H         1 UNK         0.0781 
    110 H110      -78.5086   30.4106  -75.6842 H         1 UNK         0.0836 
    111 H111      -76.8040   30.0396  -75.5122 H         1 UNK         0.0836 
    112 H112      -77.2773   25.3004  -75.9900 H         1 UNK         0.3022 
    113 H113      -75.2118   22.8787  -76.1194 H         1 UNK         0.0747 
    114 H114      -73.3158   23.3881  -74.7132 H         1 UNK         0.0793 
    115 H115      -74.3160   24.2145  -73.5248 H         1 UNK         0.0793 
    116 H116      -74.4398   22.4663  -73.7329 H         1 UNK         0.0793 
    117 H117      -77.2151   22.5708  -75.2994 H         1 UNK         0.3047 
    118 H118      -78.9475   22.4592  -74.0879 H         1 UNK         0.0822 
    119 H119      -78.1384   22.2575  -71.7225 H         1 UNK         0.0807 
    120 H120      -79.8753   22.5137  -71.8008 H         1 UNK         0.0807 
    121 H121      -78.8070   23.8427  -71.3571 H         1 UNK         0.0807 
    122 H122      -80.4163   24.6113  -73.0587 H         1 UNK         0.2946 
    123 H123      -80.9204   26.6074  -75.8329 H         1 UNK         0.1144 
    124 H124      -83.2615   25.7636  -76.1087 H         1 UNK         0.0793 
    125 H125      -82.8093   24.2260  -75.3727 H         1 UNK         0.0793 
    126 H126      -82.1178   24.7046  -76.9182 H         1 UNK         0.0793 
    127 H127      -81.8707   25.5714  -73.1856 H         1 UNK         0.2896 
@<TRIPOS>BOND
     1    1    2 1    
     2    1   67 1    
     3    1   68 1    
     4    1   69 1    
     5    2    3 2    
     6    2    4 am   BACKBONE|DICT|INTERRES
     7    4    5 1    
     8    4   70 1    
     9    5    6 1    
    10    5   65 1    
    11    5   71 1    
    12    6    7 1    
    13    6   72 1    
    14    6   73 1    
    15    7    8 1    
    16    8    9 1    
    17    8   74 1    
    18    8   75 1    
    19    9   10 ar   
    20    9   14 ar   
    21   10   11 ar   
    22   10   76 1    
    23   11   12 ar   
    24   11   48 1    
    25   12   13 ar   
    26   12   77 1    
    27   13   14 ar   
    28   13   15 1    
    29   14   78 1    
    30   15   16 1    
    31   15   79 1    
    32   15   80 1    
    33   16   17 1    
    34   17   18 1    
    35   17   81 1    
    36   17   82 1    
    37   18   19 1    
    38   18   22 1    
    39   18   83 1    
    40   19   20 am   BACKBONE|DICT|INTERRES
    41   19   21 2    
    42   20   84 1    
    43   20   85 1    
    44   22   23 am   BACKBONE|DICT|INTERRES
    45   22   86 1    
    46   23   24 2    
    47   23   25 1    
    48   25   26 1    
    49   25   27 1    
    50   25   87 1    
    51   26   88 1    
    52   26   89 1    
    53   26   90 1    
    54   27   28 am   BACKBONE|DICT|INTERRES
    55   27   91 1    
    56   28   29 2    
    57   28   30 1    
    58   30   31 1    
    59   30   32 1    
    60   30   92 1    
    61   31   93 1    
    62   31   94 1    
    63   31   95 1    
    64   32   33 am   BACKBONE|DICT|INTERRES
    65   32   96 1    
    66   33   34 2    
    67   33   35 1    
    68   35   36 1    
    69   35   37 1    
    70   35   97 1    
    71   36   98 1    
    72   36   99 1    
    73   36  100 1    
    74   37   38 am   BACKBONE|DICT|INTERRES
    75   37  101 1    
    76   38   39 2    
    77   38   40 1    
    78   40   41 1    
    79   40   42 1    
    80   40  102 1    
    81   41  103 1    
    82   41  104 1    
    83   41  105 1    
    84   42   43 am   BACKBONE|DICT|INTERRES
    85   42  106 1    
    86   43   44 2    
    87   43   45 1    
    88   45   46 1    
    89   45   49 1    
    90   45  107 1    
    91   46   47 1    
    92   46  108 1    
    93   46  109 1    
    94   47   48 1    
    95   48  110 1    
    96   48  111 1    
    97   49   50 am   BACKBONE|DICT|INTERRES
    98   49  112 1    
    99   50   51 2    
   100   50   52 1    
   101   52   53 1    
   102   52   54 1    
   103   52  113 1    
   104   53  114 1    
   105   53  115 1    
   106   53  116 1    
   107   54   55 am   BACKBONE|DICT|INTERRES
   108   54  117 1    
   109   55   56 2    
   110   55   57 1    
   111   57   58 1    
   112   57   59 1    
   113   57  118 1    
   114   58  119 1    
   115   58  120 1    
   116   58  121 1    
   117   59   60 am   BACKBONE|DICT|INTERRES
   118   59  122 1    
   119   60   61 2    
   120   60   62 1    
   121   62   63 1    
   122   62   64 1    
   123   62  123 1    
   124   63  124 1    
   125   63  125 1    
   126   63  126 1    
   127   64   65 am   BACKBONE|DICT|INTERRES
   128   64  127 1    
   129   65   66 2    
@<TRIPOS>SUBSTRUCTURE
     1 UNK         1 GROUP             0       ****    0 ROOT    
