@<TRIPOS>MOLECULE
3R135
127   129    1
SMALL
USER_CHARGES


@<TRIPOS>ATOM
      1 CA        -83.5327   29.9864  -74.1366 C.3       0 UNK        -0.1998 
      2 C         -82.3540   29.0264  -74.1129 C.2       0 UNK         0.4909 
      3 O         -81.4316   29.1658  -74.9143 O.2       0 UNK        -0.5240 
      4 N         -82.3814   28.0351  -73.2144 N.am      1 UNK        -0.4739 
      5 CA        -81.3092   27.0546  -72.9793 C.3       1 UNK         0.0864 
      6 C6        -81.3127   26.5421  -71.5139 C.3       11 UNK        -0.0881 
      7 S7        -81.2731   27.8949  -70.2873 S.3       11 UNK        -0.2682 
      8 C8        -79.5432   27.8383  -69.7055 C.3       11 UNK         0.0289 
      9 C9        -78.4899   28.2506  -70.7354 C.ar      11 UNK        -0.0687 
     10 C10       -78.7567   29.1780  -71.7521 C.ar      11 UNK        -0.0823 
     11 C11       -77.7640   29.5522  -72.6642 C.ar      11 UNK        -0.0830 
     12 C12       -76.4746   29.0317  -72.5174 C.ar      11 UNK        -0.1021 
     13 C13       -76.1892   28.1162  -71.5023 C.ar      11 UNK        -0.0753 
     14 C14       -77.2006   27.7219  -70.6235 C.ar      11 UNK        -0.0933 
     15 C15       -74.7791   27.5779  -71.3424 C.3       11 UNK         0.0166 
     16 S16       -73.8291   28.6387  -70.2119 S.3       11 UNK        -0.2615 
     17 C17       -72.1153   28.2736  -70.7135 C.3       11 UNK        -0.0865 
     18 CA        -71.5013   29.4271  -71.5481 C.3       10 UNK         0.0862 
     19 C         -69.9741   29.2123  -71.7309 C.2       10 UNK         0.5551 
     20 N         -69.1615   29.7485  -70.8311 N.am      10 UNK        -0.7319 
     21 O         -69.5261   28.5299  -72.6501 O.2       10 UNK        -0.5018 
     22 N         -72.1975   29.5866  -72.8323 N.am      10 UNK        -0.4509 
     23 C         -72.0393   30.6063  -73.6821 C.2       10 UNK         0.4899 
     24 O         -71.3711   31.6108  -73.4315 O.2       10 UNK        -0.4839 
     25 CA        -72.7208   30.4487  -75.0568 C.3       9 UNK         0.0222 
     26 CB        -72.5815   31.7027  -75.9391 C.3       9 UNK        -0.1966 
     27 N         -72.1751   29.2932  -75.7761 N.am      9 UNK        -0.4218 
     28 C         -72.5245   28.0225  -75.5461 C.2       9 UNK         0.5020 
     29 O         -73.3903   27.6933  -74.7349 O.2       9 UNK        -0.5274 
     30 CA        -71.7247   26.9405  -76.2745 C.3       8 UNK         0.0270 
     31 CB        -70.4837   26.5567  -75.4434 C.3       8 UNK        -0.1976 
     32 N         -72.5883   25.7811  -76.4864 N.am      8 UNK        -0.4313 
     33 C         -72.3130   24.7456  -77.2892 C.2       8 UNK         0.5041 
     34 O         -71.2575   24.6196  -77.9125 O.2       8 UNK        -0.5577 
     35 CA        -73.4098   23.6803  -77.4555 C.3       7 UNK         0.0284 
     36 CB        -73.5173   22.7948  -76.2033 C.3       7 UNK        -0.1958 
     37 N         -74.7142   24.2654  -77.7722 N.am      7 UNK        -0.4454 
     38 C         -74.9960   24.9291  -78.9043 C.2       7 UNK         0.5089 
     39 O         -74.2092   25.0521  -79.8436 O.2       7 UNK        -0.5125 
     40 CA        -76.3877   25.5781  -79.0099 C.3       6 UNK         0.0408 
     41 CB        -77.3953   24.5923  -79.6192 C.3       6 UNK        -0.1791 
     42 N         -76.8904   26.0662  -77.7238 N.am      6 UNK        -0.4762 
     43 C         -76.3369   27.0648  -77.0179 C.2       6 UNK         0.5007 
     44 O         -75.3812   27.7294  -77.4181 O.2       6 UNK        -0.5032 
     45 CA        -76.9322   27.3454  -75.6248 C.3       5 UNK         0.0783 
     46 C46       -78.0572   28.4129  -75.6742 C.3       11 UNK        -0.0857 
     47 S47       -77.3951   30.0932  -75.4120 S.3       11 UNK        -0.2512 
     48 C48       -78.0967   30.5386  -73.7828 C.3       11 UNK         0.0225 
     49 N         -77.3803   26.1109  -74.9776 N.am      5 UNK        -0.4615 
     50 C         -76.5598   25.2307  -74.3883 C.2       4 UNK         0.5053 
     51 O         -75.3382   25.3541  -74.3332 O.2       4 UNK        -0.5105 
     52 CA        -77.2140   23.9792  -73.7850 C.3       4 UNK         0.0263 
     53 CB        -77.7769   24.2913  -72.3892 C.3       4 UNK        -0.1981 
     54 N         -78.2672   23.4313  -74.6441 N.am      4 UNK        -0.4224 
     55 C         -78.0340   22.8807  -75.8464 C.2       3 UNK         0.4895 
     56 O         -76.9109   22.7562  -76.3340 O.2       3 UNK        -0.5091 
     57 CA        -79.2525   22.4233  -76.6678 C.3       3 UNK         0.0250 
     58 CB        -79.5924   20.9588  -76.3497 C.3       3 UNK        -0.1996 
     59 N         -80.4477   23.2503  -76.4846 N.am      3 UNK        -0.4254 
     60 C         -80.5226   24.5737  -76.6843 C.2       2 UNK         0.5004 
     61 O         -79.5715   25.2688  -77.0448 O.2       2 UNK        -0.5226 
     62 CA        -81.8667   25.2578  -76.3799 C.3       2 UNK         0.0269 
     63 CB        -83.0447   24.2814  -76.1572 C.3       2 UNK        -0.1926 
     64 N         -81.7467   26.1761  -75.2429 N.am      2 UNK        -0.4687 
     65 C         -81.3157   25.8949  -74.0034 C.2       1 UNK         0.5165 
     66 O         -80.9302   24.7749  -73.6602 O.2       1 UNK        -0.5079 
     67 H67       -84.0090   29.9723  -75.1168 H         1 UNK         0.0900 
     68 H68       -83.1904   31.0019  -73.9380 H         1 UNK         0.0900 
     69 H69       -84.2834   29.7289  -73.3893 H         1 UNK         0.0900 
     70 H70       -83.1747   27.9567  -72.5939 H         1 UNK         0.2959 
     71 H71       -80.3558   27.5558  -73.1432 H         1 UNK         0.1079 
     72 H72       -82.2068   25.9452  -71.3254 H         1 UNK         0.0837 
     73 H73       -80.4668   25.8781  -71.3305 H         1 UNK         0.0837 
     74 H74       -79.4520   28.5025  -68.8453 H         1 UNK         0.0685 
     75 H75       -79.3373   26.8317  -69.3377 H         1 UNK         0.0685 
     76 H76       -79.7438   29.6101  -71.8405 H         1 UNK         0.1434 
     77 H77       -75.6882   29.3378  -73.1938 H         1 UNK         0.1329 
     78 H78       -76.9725   27.0214  -69.8317 H         1 UNK         0.1335 
     79 H79       -74.7984   26.5569  -70.9585 H         1 UNK         0.0680 
     80 H80       -74.2926   27.5302  -72.3160 H         1 UNK         0.0680 
     81 H81       -71.5403   28.1178  -69.7985 H         1 UNK         0.1032 
     82 H82       -72.0712   27.3289  -71.2592 H         1 UNK         0.1032 
     83 H83       -71.6392   30.3575  -70.9929 H         1 UNK         0.0461 
     84 H84       -69.5198   30.3019  -70.0681 H         1 UNK         0.3453 
     85 H85       -68.1677   29.6066  -70.9227 H         1 UNK         0.3453 
     86 H86       -72.7244   28.7861  -73.1641 H         1 UNK         0.2984 
     87 H87       -73.7866   30.2885  -74.8789 H         1 UNK         0.0554 
     88 H88       -71.5387   31.9262  -76.1667 H         1 UNK         0.0847 
     89 H89       -73.0015   32.5776  -75.4413 H         1 UNK         0.0847 
     90 H90       -73.1137   31.5835  -76.8829 H         1 UNK         0.0847 
     91 H91       -71.4198   29.4800  -76.4196 H         1 UNK         0.3141 
     92 H92       -71.4143   27.3256  -77.2478 H         1 UNK         0.0743 
     93 H93       -70.7643   26.1413  -74.4747 H         1 UNK         0.0784 
     94 H94       -69.8621   25.8228  -75.9553 H         1 UNK         0.0784 
     95 H95       -69.8557   27.4276  -75.2518 H         1 UNK         0.0784 
     96 H96       -73.4766   25.8267  -75.9959 H         1 UNK         0.3213 
     97 H97       -73.1238   23.0406  -78.2934 H         1 UNK         0.0855 
     98 H98       -73.8433   23.3605  -75.3304 H         1 UNK         0.0814 
     99 H99       -72.5535   22.3459  -75.9595 H         1 UNK         0.0814 
    100 H100      -74.2246   21.9793  -76.3552 H         1 UNK         0.0814 
    101 H101      -75.4503   24.1444  -77.0857 H         1 UNK         0.3105 
    102 H102      -76.3061   26.4368  -79.6795 H         1 UNK         0.0547 
    103 H103      -77.0860   24.2908  -80.6208 H         1 UNK         0.0837 
    104 H104      -77.4800   23.6861  -79.0206 H         1 UNK         0.0837 
    105 H105      -78.3878   25.0352  -79.7046 H         1 UNK         0.0837 
    106 H106      -77.7327   25.6243  -77.3623 H         1 UNK         0.3020 
    107 H107      -76.1093   27.7320  -75.0187 H         1 UNK         0.1245 
    108 H108      -78.8036   28.2190  -74.9037 H         1 UNK         0.0781 
    109 H109      -78.6102   28.3846  -76.6154 H         1 UNK         0.0781 
    110 H110      -79.1778   30.6359  -73.8964 H         1 UNK         0.0836 
    111 H111      -77.7270   31.5248  -73.5000 H         1 UNK         0.0836 
    112 H112      -78.3610   25.8852  -75.0600 H         1 UNK         0.3022 
    113 H113      -76.4399   23.2161  -73.6767 H         1 UNK         0.0747 
    114 H114      -78.2472   23.4158  -71.9416 H         1 UNK         0.0793 
    115 H115      -76.9823   24.6152  -71.7155 H         1 UNK         0.0793 
    116 H116      -78.5149   25.0921  -72.4220 H         1 UNK         0.0793 
    117 H117      -79.2247   23.5403  -74.3287 H         1 UNK         0.3047 
    118 H118      -78.9785   22.4837  -77.7218 H         1 UNK         0.0822 
    119 H119      -80.3859   20.5848  -76.9970 H         1 UNK         0.0807 
    120 H120      -79.9144   20.8339  -75.3150 H         1 UNK         0.0807 
    121 H121      -78.7243   20.3154  -76.5008 H         1 UNK         0.0807 
    122 H122      -81.2759   22.7773  -76.1534 H         1 UNK         0.2946 
    123 H123      -82.0984   25.8661  -77.2560 H         1 UNK         0.1144 
    124 H124      -83.9805   24.8266  -76.0332 H         1 UNK         0.0793 
    125 H125      -82.9107   23.6616  -75.2698 H         1 UNK         0.0793 
    126 H126      -83.1773   23.6183  -77.0134 H         1 UNK         0.0793 
    127 H127      -81.9543   27.1489  -75.4368 H         1 UNK         0.2896 
@<TRIPOS>BOND
     1    1    2 1    
     2    1   67 1    
     3    1   68 1    
     4    1   69 1    
     5    2    3 2    
     6    2    4 am   BACKBONE|DICT|INTERRES
     7    4    5 1    
     8    4   70 1    
     9    5    6 1    
    10    5   65 1    
    11    5   71 1    
    12    6    7 1    
    13    6   72 1    
    14    6   73 1    
    15    7    8 1    
    16    8    9 1    
    17    8   74 1    
    18    8   75 1    
    19    9   10 ar   
    20    9   14 ar   
    21   10   11 ar   
    22   10   76 1    
    23   11   12 ar   
    24   11   48 1    
    25   12   13 ar   
    26   12   77 1    
    27   13   14 ar   
    28   13   15 1    
    29   14   78 1    
    30   15   16 1    
    31   15   79 1    
    32   15   80 1    
    33   16   17 1    
    34   17   18 1    
    35   17   81 1    
    36   17   82 1    
    37   18   19 1    
    38   18   22 1    
    39   18   83 1    
    40   19   20 am   BACKBONE|DICT|INTERRES
    41   19   21 2    
    42   20   84 1    
    43   20   85 1    
    44   22   23 am   BACKBONE|DICT|INTERRES
    45   22   86 1    
    46   23   24 2    
    47   23   25 1    
    48   25   26 1    
    49   25   27 1    
    50   25   87 1    
    51   26   88 1    
    52   26   89 1    
    53   26   90 1    
    54   27   28 am   BACKBONE|DICT|INTERRES
    55   27   91 1    
    56   28   29 2    
    57   28   30 1    
    58   30   31 1    
    59   30   32 1    
    60   30   92 1    
    61   31   93 1    
    62   31   94 1    
    63   31   95 1    
    64   32   33 am   BACKBONE|DICT|INTERRES
    65   32   96 1    
    66   33   34 2    
    67   33   35 1    
    68   35   36 1    
    69   35   37 1    
    70   35   97 1    
    71   36   98 1    
    72   36   99 1    
    73   36  100 1    
    74   37   38 am   BACKBONE|DICT|INTERRES
    75   37  101 1    
    76   38   39 2    
    77   38   40 1    
    78   40   41 1    
    79   40   42 1    
    80   40  102 1    
    81   41  103 1    
    82   41  104 1    
    83   41  105 1    
    84   42   43 am   BACKBONE|DICT|INTERRES
    85   42  106 1    
    86   43   44 2    
    87   43   45 1    
    88   45   46 1    
    89   45   49 1    
    90   45  107 1    
    91   46   47 1    
    92   46  108 1    
    93   46  109 1    
    94   47   48 1    
    95   48  110 1    
    96   48  111 1    
    97   49   50 am   BACKBONE|DICT|INTERRES
    98   49  112 1    
    99   50   51 2    
   100   50   52 1    
   101   52   53 1    
   102   52   54 1    
   103   52  113 1    
   104   53  114 1    
   105   53  115 1    
   106   53  116 1    
   107   54   55 am   BACKBONE|DICT|INTERRES
   108   54  117 1    
   109   55   56 2    
   110   55   57 1    
   111   57   58 1    
   112   57   59 1    
   113   57  118 1    
   114   58  119 1    
   115   58  120 1    
   116   58  121 1    
   117   59   60 am   BACKBONE|DICT|INTERRES
   118   59  122 1    
   119   60   61 2    
   120   60   62 1    
   121   62   63 1    
   122   62   64 1    
   123   62  123 1    
   124   63  124 1    
   125   63  125 1    
   126   63  126 1    
   127   64   65 am   BACKBONE|DICT|INTERRES
   128   64  127 1    
   129   65   66 2    
@<TRIPOS>SUBSTRUCTURE
     1 UNK         1 GROUP             0       ****    0 ROOT    
