@<TRIPOS>MOLECULE
3R135
127   129    1
SMALL
USER_CHARGES


@<TRIPOS>ATOM
      1 CA        -82.8989   29.5989  -75.8810 C.3       0 UNK        -0.1998 
      2 C         -81.7305   29.3231  -74.9474 C.2       0 UNK         0.4909 
      3 O         -80.7607   30.0821  -74.9353 O.2       0 UNK        -0.5240 
      4 N         -81.8028   28.2329  -74.1717 N.am      1 UNK        -0.4739 
      5 CA        -80.7763   27.7947  -73.2173 C.3       1 UNK         0.0864 
      6 C6        -81.4208   26.9515  -72.0845 C.3       11 UNK        -0.0881 
      7 S7        -80.4418   26.6590  -70.5643 S.3       11 UNK        -0.2682 
      8 C8        -79.4429   28.1667  -70.2970 C.3       11 UNK         0.0289 
      9 C9        -78.1335   28.1672  -71.0796 C.ar      11 UNK        -0.0687 
     10 C10       -77.2727   27.0674  -71.0155 C.ar      11 UNK        -0.0823 
     11 C11       -76.0666   27.0555  -71.7230 C.ar      11 UNK        -0.0830 
     12 C12       -75.7119   28.1720  -72.4858 C.ar      11 UNK        -0.1021 
     13 C13       -76.5434   29.2961  -72.5281 C.ar      11 UNK        -0.0753 
     14 C14       -77.7574   29.2835  -71.8333 C.ar      11 UNK        -0.0933 
     15 C15       -76.1071   30.5462  -73.2757 C.3       11 UNK         0.0166 
     16 S16       -75.5066   31.7917  -72.0907 S.3       11 UNK        -0.2615 
     17 C17       -74.2540   32.7119  -73.0527 C.3       11 UNK        -0.0865 
     18 CA        -72.7947   32.2866  -72.7312 C.3       10 UNK         0.0862 
     19 C         -72.3725   32.6493  -71.2748 C.2       10 UNK         0.5551 
     20 N         -72.0358   31.6910  -70.4201 N.am      10 UNK        -0.7319 
     21 O         -72.3398   33.8260  -70.9222 O.2       10 UNK        -0.5018 
     22 N         -72.5524   30.8981  -73.1507 N.am      10 UNK        -0.4509 
     23 C         -71.3545   30.3291  -73.3362 C.2       10 UNK         0.4899 
     24 O         -70.2797   30.8776  -73.0935 O.2       10 UNK        -0.4839 
     25 CA        -71.3647   28.9130  -73.9419 C.3       9 UNK         0.0222 
     26 CB        -71.5329   27.8517  -72.8418 C.3       9 UNK        -0.1966 
     27 N         -72.4004   28.7305  -74.9672 N.am      9 UNK        -0.4218 
     28 C         -72.4904   29.4301  -76.1080 C.2       9 UNK         0.5020 
     29 O         -71.6767   30.2861  -76.4598 O.2       9 UNK        -0.5274 
     30 CA        -73.6826   29.0846  -77.0142 C.3       8 UNK         0.0270 
     31 CB        -73.8978   30.1116  -78.1415 C.3       8 UNK        -0.1976 
     32 N         -73.5093   27.7555  -77.5992 N.am      8 UNK        -0.4313 
     33 C         -73.7973   26.6093  -76.9748 C.2       8 UNK         0.5041 
     34 O         -74.2898   26.5510  -75.8445 O.2       8 UNK        -0.5577 
     35 CA        -73.4240   25.3189  -77.7062 C.3       7 UNK         0.0284 
     36 CB        -72.1606   24.7004  -77.0755 C.3       7 UNK        -0.1958 
     37 N         -74.5532   24.4023  -77.6163 N.am      7 UNK        -0.4454 
     38 C         -74.7035   23.2604  -78.2987 C.2       7 UNK         0.5089 
     39 O         -73.8962   22.8525  -79.1359 O.2       7 UNK        -0.5125 
     40 CA        -75.9753   22.4426  -77.9928 C.3       6 UNK         0.0408 
     41 CB        -75.8467   20.9507  -78.3653 C.3       6 UNK        -0.1791 
     42 N         -76.4255   22.6146  -76.6075 N.am      6 UNK        -0.4762 
     43 C         -75.7857   22.2596  -75.4827 C.2       6 UNK         0.5007 
     44 O         -74.7497   21.5943  -75.4596 O.2       6 UNK        -0.5032 
     45 CA        -76.3895   22.7534  -74.1515 C.3       5 UNK         0.0783 
     46 C46       -75.6223   23.9962  -73.6383 C.3       11 UNK        -0.0857 
     47 S47       -75.9339   24.2661  -71.8674 S.3       11 UNK        -0.2512 
     48 C48       -75.1144   25.8716  -71.5983 C.3       11 UNK         0.0225 
     49 N         -77.8302   23.0153  -74.2551 N.am      5 UNK        -0.4615 
     50 C         -78.7694   22.0655  -74.3597 C.2       4 UNK         0.5053 
     51 O         -78.5374   20.8590  -74.2812 O.2       4 UNK        -0.5105 
     52 CA        -80.2028   22.5432  -74.6350 C.3       4 UNK         0.0263 
     53 CB        -80.9206   22.9074  -73.3245 C.3       4 UNK        -0.1981 
     54 N         -80.2136   23.6877  -75.5511 N.am      4 UNK        -0.4224 
     55 C         -80.0844   23.5828  -76.8834 C.2       3 UNK         0.4895 
     56 O         -80.0113   22.5070  -77.4770 O.2       3 UNK        -0.5091 
     57 CA        -80.0156   24.8843  -77.7049 C.3       3 UNK         0.0250 
     58 CB        -81.4102   25.2594  -78.2315 C.3       3 UNK        -0.1996 
     59 N         -79.4619   26.0202  -76.9670 N.am      3 UNK        -0.4254 
     60 C         -78.1880   26.1315  -76.5655 C.2       2 UNK         0.5004 
     61 O         -77.3146   25.3059  -76.8224 O.2       2 UNK        -0.5226 
     62 CA        -77.8405   27.3490  -75.6934 C.3       2 UNK         0.0269 
     63 CB        -77.3765   28.5129  -76.5815 C.3       2 UNK        -0.1926 
     64 N         -78.9433   27.8110  -74.8433 N.am      2 UNK        -0.4687 
     65 C         -79.6290   27.0718  -73.9596 C.2       1 UNK         0.5165 
     66 O         -79.4289   25.8679  -73.7896 O.2       1 UNK        -0.5079 
     67 H67       -83.3370   30.5707  -75.6551 H         1 UNK         0.0900 
     68 H68       -82.5572   29.6115  -76.9157 H         1 UNK         0.0900 
     69 H69       -83.6808   28.8451  -75.7907 H         1 UNK         0.0900 
     70 H70       -82.6144   27.6350  -74.2420 H         1 UNK         0.2959 
     71 H71       -80.3541   28.6958  -72.7747 H         1 UNK         0.1079 
     72 H72       -81.7461   25.9825  -72.4681 H         1 UNK         0.0837 
     73 H73       -82.3347   27.4470  -71.7525 H         1 UNK         0.0837 
     74 H74       -79.1970   28.2248  -69.2359 H         1 UNK         0.0685 
     75 H75       -80.0444   29.0508  -70.5126 H         1 UNK         0.0685 
     76 H76       -77.5450   26.2134  -70.4106 H         1 UNK         0.1434 
     77 H77       -74.7732   28.1786  -73.0200 H         1 UNK         0.1329 
     78 H78       -78.3948   30.1568  -71.8622 H         1 UNK         0.1335 
     79 H79       -76.9437   30.9567  -73.8433 H         1 UNK         0.0680 
     80 H80       -75.3298   30.3021  -74.0007 H         1 UNK         0.0680 
     81 H81       -74.4528   32.5974  -74.1195 H         1 UNK         0.1032 
     82 H82       -74.3864   33.7766  -72.8509 H         1 UNK         0.1032 
     83 H83       -72.1516   32.9003  -73.3651 H         1 UNK         0.0461 
     84 H84       -71.7598   31.9365  -69.4827 H         1 UNK         0.3453 
     85 H85       -72.0587   30.7262  -70.7065 H         1 UNK         0.3453 
     86 H86       -73.3762   30.3512  -73.3414 H         1 UNK         0.2984 
     87 H87       -70.3982   28.7525  -74.4240 H         1 UNK         0.0554 
     88 H88       -70.7311   27.9267  -72.1059 H         1 UNK         0.0847 
     89 H89       -71.4981   26.8425  -73.2530 H         1 UNK         0.0847 
     90 H90       -72.4750   27.9641  -72.3050 H         1 UNK         0.0847 
     91 H91       -73.0724   27.9824  -74.8304 H         1 UNK         0.3141 
     92 H92       -74.5732   29.0944  -76.3844 H         1 UNK         0.0743 
     93 H93       -73.0488   30.1498  -78.8253 H         1 UNK         0.0784 
     94 H94       -74.7884   29.8771  -78.7250 H         1 UNK         0.0784 
     95 H95       -74.0341   31.1143  -77.7340 H         1 UNK         0.0784 
     96 H96       -73.0623   27.7201  -78.5048 H         1 UNK         0.3213 
     97 H97       -73.2365   25.5376  -78.7596 H         1 UNK         0.0855 
     98 H98       -72.3318   24.4145  -76.0366 H         1 UNK         0.0814 
     99 H99       -71.3303   25.4078  -77.0874 H         1 UNK         0.0814 
    100 H100      -71.8329   23.8125  -77.6159 H         1 UNK         0.0814 
    101 H101      -75.3051   24.7055  -77.0022 H         1 UNK         0.3105 
    102 H102      -76.7637   22.8689  -78.6148 H         1 UNK         0.0547 
    103 H103      -76.7573   20.4024  -78.1244 H         1 UNK         0.0837 
    104 H104      -75.0168   20.4710  -77.8463 H         1 UNK         0.0837 
    105 H105      -75.6703   20.8307  -79.4348 H         1 UNK         0.0837 
    106 H106      -77.2152   23.2409  -76.5009 H         1 UNK         0.3020 
    107 H107      -76.2451   21.9386  -73.4378 H         1 UNK         0.1245 
    108 H108      -75.8993   24.8901  -74.2012 H         1 UNK         0.0781 
    109 H109      -74.5438   23.8762  -73.7634 H         1 UNK         0.0781 
    110 H110      -74.2712   25.9700  -72.2840 H         1 UNK         0.0836 
    111 H111      -74.6917   25.8790  -70.5929 H         1 UNK         0.0836 
    112 H112      -78.1165   23.9860  -74.2657 H         1 UNK         0.3022 
    113 H113      -80.7498   21.7186  -75.0975 H         1 UNK         0.0747 
    114 H114      -81.9325   23.2666  -73.5115 H         1 UNK         0.0793 
    115 H115      -81.0009   22.0356  -72.6740 H         1 UNK         0.0793 
    116 H116      -80.3886   23.6772  -72.7646 H         1 UNK         0.0793 
    117 H117      -80.1932   24.6058  -75.1192 H         1 UNK         0.3047 
    118 H118      -79.3651   24.6941  -78.5616 H         1 UNK         0.0822 
    119 H119      -81.3669   26.1303  -78.8859 H         1 UNK         0.0807 
    120 H120      -82.1034   25.4821  -77.4193 H         1 UNK         0.0807 
    121 H121      -81.8406   24.4421  -78.8121 H         1 UNK         0.0807 
    122 H122      -80.1039   26.7544  -76.7078 H         1 UNK         0.2946 
    123 H123      -77.0160   27.0549  -75.0397 H         1 UNK         0.1144 
    124 H124      -76.9856   29.3356  -75.9838 H         1 UNK         0.0793 
    125 H125      -78.1901   28.9018  -77.1950 H         1 UNK         0.0793 
    126 H126      -76.5846   28.1937  -77.2601 H         1 UNK         0.0793 
    127 H127      -79.2319   28.7784  -74.9529 H         1 UNK         0.2896 
@<TRIPOS>BOND
     1    1    2 1    
     2    1   67 1    
     3    1   68 1    
     4    1   69 1    
     5    2    3 2    
     6    2    4 am   BACKBONE|DICT|INTERRES
     7    4    5 1    
     8    4   70 1    
     9    5    6 1    
    10    5   65 1    
    11    5   71 1    
    12    6    7 1    
    13    6   72 1    
    14    6   73 1    
    15    7    8 1    
    16    8    9 1    
    17    8   74 1    
    18    8   75 1    
    19    9   10 ar   
    20    9   14 ar   
    21   10   11 ar   
    22   10   76 1    
    23   11   12 ar   
    24   11   48 1    
    25   12   13 ar   
    26   12   77 1    
    27   13   14 ar   
    28   13   15 1    
    29   14   78 1    
    30   15   16 1    
    31   15   79 1    
    32   15   80 1    
    33   16   17 1    
    34   17   18 1    
    35   17   81 1    
    36   17   82 1    
    37   18   19 1    
    38   18   22 1    
    39   18   83 1    
    40   19   20 am   BACKBONE|DICT|INTERRES
    41   19   21 2    
    42   20   84 1    
    43   20   85 1    
    44   22   23 am   BACKBONE|DICT|INTERRES
    45   22   86 1    
    46   23   24 2    
    47   23   25 1    
    48   25   26 1    
    49   25   27 1    
    50   25   87 1    
    51   26   88 1    
    52   26   89 1    
    53   26   90 1    
    54   27   28 am   BACKBONE|DICT|INTERRES
    55   27   91 1    
    56   28   29 2    
    57   28   30 1    
    58   30   31 1    
    59   30   32 1    
    60   30   92 1    
    61   31   93 1    
    62   31   94 1    
    63   31   95 1    
    64   32   33 am   BACKBONE|DICT|INTERRES
    65   32   96 1    
    66   33   34 2    
    67   33   35 1    
    68   35   36 1    
    69   35   37 1    
    70   35   97 1    
    71   36   98 1    
    72   36   99 1    
    73   36  100 1    
    74   37   38 am   BACKBONE|DICT|INTERRES
    75   37  101 1    
    76   38   39 2    
    77   38   40 1    
    78   40   41 1    
    79   40   42 1    
    80   40  102 1    
    81   41  103 1    
    82   41  104 1    
    83   41  105 1    
    84   42   43 am   BACKBONE|DICT|INTERRES
    85   42  106 1    
    86   43   44 2    
    87   43   45 1    
    88   45   46 1    
    89   45   49 1    
    90   45  107 1    
    91   46   47 1    
    92   46  108 1    
    93   46  109 1    
    94   47   48 1    
    95   48  110 1    
    96   48  111 1    
    97   49   50 am   BACKBONE|DICT|INTERRES
    98   49  112 1    
    99   50   51 2    
   100   50   52 1    
   101   52   53 1    
   102   52   54 1    
   103   52  113 1    
   104   53  114 1    
   105   53  115 1    
   106   53  116 1    
   107   54   55 am   BACKBONE|DICT|INTERRES
   108   54  117 1    
   109   55   56 2    
   110   55   57 1    
   111   57   58 1    
   112   57   59 1    
   113   57  118 1    
   114   58  119 1    
   115   58  120 1    
   116   58  121 1    
   117   59   60 am   BACKBONE|DICT|INTERRES
   118   59  122 1    
   119   60   61 2    
   120   60   62 1    
   121   62   63 1    
   122   62   64 1    
   123   62  123 1    
   124   63  124 1    
   125   63  125 1    
   126   63  126 1    
   127   64   65 am   BACKBONE|DICT|INTERRES
   128   64  127 1    
   129   65   66 2    
@<TRIPOS>SUBSTRUCTURE
     1 UNK         1 GROUP             0       ****    0 ROOT    
