@<TRIPOS>MOLECULE
3R135
127   129    1
SMALL
USER_CHARGES


@<TRIPOS>ATOM
      1 CA        -83.8995   28.9061  -75.4329 C.3       0 UNK        -0.1998 
      2 C         -82.7426   27.9820  -75.0865 C.2       0 UNK         0.4909 
      3 O         -82.9227   26.7643  -75.0519 O.2       0 UNK        -0.5240 
      4 N         -81.5468   28.5486  -74.8589 N.am      1 UNK        -0.4739 
      5 CA        -80.3146   27.8591  -74.4244 C.3       1 UNK         0.0864 
      6 C6        -80.4470   27.2415  -73.0025 C.3       11 UNK        -0.0881 
      7 S7        -80.9459   28.4800  -71.7514 S.3       11 UNK        -0.2682 
      8 C8        -79.7438   28.2122  -70.4025 C.3       11 UNK         0.0289 
      9 C9        -78.2860   28.2984  -70.8441 C.ar      11 UNK        -0.0687 
     10 C10       -77.3715   27.3398  -70.3950 C.ar      11 UNK        -0.0823 
     11 C11       -76.0386   27.3792  -70.8120 C.ar      11 UNK        -0.0830 
     12 C12       -75.6242   28.3828  -71.6908 C.ar      11 UNK        -0.1021 
     13 C13       -76.5207   29.3585  -72.1332 C.ar      11 UNK        -0.0753 
     14 C14       -77.8470   29.3190  -71.6961 C.ar      11 UNK        -0.0933 
     15 C15       -76.0695   30.4278  -73.1170 C.3       11 UNK         0.0166 
     16 S16       -75.5644   31.9762  -72.2985 S.3       11 UNK        -0.2615 
     17 C17       -73.9967   31.5281  -71.4692 C.3       11 UNK        -0.0865 
     18 CA        -72.7296   32.0024  -72.2409 C.3       10 UNK         0.0862 
     19 C         -71.4291   31.8841  -71.3854 C.2       10 UNK         0.5551 
     20 N         -70.2784   31.5695  -71.9677 N.am      10 UNK        -0.7319 
     21 O         -71.4527   32.1181  -70.1793 O.2       10 UNK        -0.5018 
     22 N         -72.6342   31.4387  -73.6022 N.am      10 UNK        -0.4509 
     23 C         -72.4738   30.1471  -73.9232 C.2       10 UNK         0.4899 
     24 O         -72.3948   29.2399  -73.0928 O.2       10 UNK        -0.4839 
     25 CA        -72.4615   29.8291  -75.4332 C.3       9 UNK         0.0222 
     26 CB        -71.5599   30.7909  -76.2402 C.3       9 UNK        -0.1966 
     27 N         -72.1270   28.4329  -75.7397 N.am      9 UNK        -0.4218 
     28 C         -70.9658   27.7953  -75.5080 C.2       9 UNK         0.5020 
     29 O         -69.9829   28.3151  -74.9764 O.2       9 UNK        -0.5274 
     30 CA        -70.8634   26.3263  -75.9700 C.3       8 UNK         0.0270 
     31 CB        -71.1035   25.3730  -74.7904 C.3       8 UNK        -0.1976 
     32 N         -71.7857   25.9922  -77.0600 N.am      8 UNK        -0.4313 
     33 C         -71.7051   26.5053  -78.2970 C.2       8 UNK         0.5041 
     34 O         -70.7676   27.2072  -78.6792 O.2       8 UNK        -0.5577 
     35 CA        -72.8586   26.2203  -79.2775 C.3       7 UNK         0.0284 
     36 CB        -72.4046   25.2339  -80.3667 C.3       7 UNK        -0.1958 
     37 N         -74.0972   25.7189  -78.6728 N.am      7 UNK        -0.4454 
     38 C         -74.8504   26.3320  -77.7480 C.2       7 UNK         0.5089 
     39 O         -74.5487   27.4017  -77.2148 O.2       7 UNK        -0.5125 
     40 CA        -76.1554   25.6214  -77.3312 C.3       6 UNK         0.0408 
     41 CB        -76.5254   24.4125  -78.2216 C.3       6 UNK        -0.1791 
     42 N         -76.1684   25.2069  -75.9253 N.am      6 UNK        -0.4762 
     43 C         -75.2317   24.4895  -75.2835 C.2       6 UNK         0.5007 
     44 O         -74.1600   24.1459  -75.7874 O.2       6 UNK        -0.5032 
     45 CA        -75.5418   24.0784  -73.8302 C.3       5 UNK         0.0783 
     46 C46       -74.9076   25.0887  -72.8453 C.3       11 UNK        -0.0857 
     47 S47       -75.2837   24.7151  -71.0980 S.3       11 UNK        -0.2512 
     48 C48       -75.0424   26.3407  -70.3141 C.3       11 UNK         0.0225 
     49 N         -76.9736   23.8841  -73.5689 N.am      5 UNK        -0.4615 
     50 C         -77.7346   22.9077  -74.0786 C.2       4 UNK         0.5053 
     51 O         -77.3493   22.1185  -74.9414 O.2       4 UNK        -0.5105 
     52 CA        -79.1494   22.7485  -73.5023 C.3       4 UNK         0.0263 
     53 CB        -79.3755   23.4777  -72.1609 C.3       4 UNK        -0.1981 
     54 N         -80.1234   23.2205  -74.4817 N.am      4 UNK        -0.4224 
     55 C         -81.1740   22.5155  -74.9263 C.2       3 UNK         0.4895 
     56 O         -81.4307   21.3689  -74.5552 O.2       3 UNK        -0.5091 
     57 CA        -82.1267   23.1882  -75.9360 C.3       3 UNK         0.0250 
     58 CB        -83.4944   23.4560  -75.2855 C.3       3 UNK        -0.1996 
     59 N         -81.6093   24.4438  -76.4834 N.am      3 UNK        -0.4254 
     60 C         -80.6621   24.5252  -77.4299 C.2       2 UNK         0.5004 
     61 O         -80.1955   23.5458  -78.0108 O.2       2 UNK        -0.5226 
     62 CA        -80.1195   25.9260  -77.7737 C.3       2 UNK         0.0269 
     63 CB        -80.7822   26.4586  -79.0538 C.3       2 UNK        -0.1926 
     64 N         -80.2892   26.9119  -76.7020 N.am      2 UNK        -0.4687 
     65 C         -79.7954   26.8256  -75.4567 C.2       1 UNK         0.5165 
     66 O         -79.0011   25.9478  -75.1104 O.2       1 UNK        -0.5079 
     67 H67       -83.5963   29.9528  -75.4461 H         1 UNK         0.0900 
     68 H68       -84.2993   28.6549  -76.4149 H         1 UNK         0.0900 
     69 H69       -84.6983   28.7936  -74.7005 H         1 UNK         0.0900 
     70 H70       -81.4686   29.5546  -74.9203 H         1 UNK         0.2959 
     71 H71       -79.5380   28.6242  -74.3764 H         1 UNK         0.1079 
     72 H72       -79.4986   26.7978  -72.7003 H         1 UNK         0.0837 
     73 H73       -81.1757   26.4291  -72.9959 H         1 UNK         0.0837 
     74 H74       -79.9181   28.9561  -69.6244 H         1 UNK         0.0685 
     75 H75       -79.9509   27.2397  -69.9529 H         1 UNK         0.0685 
     76 H76       -77.6957   26.5534  -69.7268 H         1 UNK         0.1434 
     77 H77       -74.6002   28.3982  -72.0362 H         1 UNK         0.1329 
     78 H78       -78.5444   30.0706  -72.0396 H         1 UNK         0.1335 
     79 H79       -76.8877   30.6544  -73.8023 H         1 UNK         0.0680 
     80 H80       -75.2611   30.0513  -73.7414 H         1 UNK         0.0680 
     81 H81       -73.9499   30.4587  -71.2756 H         1 UNK         0.1032 
     82 H82       -74.0320   31.9950  -70.4833 H         1 UNK         0.1032 
     83 H83       -72.8416   33.0763  -72.3945 H         1 UNK         0.0461 
     84 H84       -70.2456   31.3674  -72.9539 H         1 UNK         0.3453 
     85 H85       -69.4418   31.5077  -71.4094 H         1 UNK         0.3453 
     86 H86       -72.6967   32.1146  -74.3493 H         1 UNK         0.2984 
     87 H87       -73.4866   29.9635  -75.7816 H         1 UNK         0.0554 
     88 H88       -71.9377   31.8133  -76.2170 H         1 UNK         0.0847 
     89 H89       -71.5119   30.4980  -77.2894 H         1 UNK         0.0847 
     90 H90       -70.5395   30.8102  -75.8557 H         1 UNK         0.0847 
     91 H91       -72.8762   27.9062  -76.1794 H         1 UNK         0.3141 
     92 H92       -69.8458   26.1680  -76.3334 H         1 UNK         0.0743 
     93 H93       -72.1044   25.4971  -74.3806 H         1 UNK         0.0784 
     94 H94       -70.9875   24.3306  -75.0877 H         1 UNK         0.0784 
     95 H95       -70.3945   25.5633  -73.9834 H         1 UNK         0.0784 
     96 H96       -72.5828   25.4108  -76.8260 H         1 UNK         0.3213 
     97 H97       -73.1001   27.1708  -79.7579 H         1 UNK         0.0855 
     98 H98       -72.1772   24.2514  -79.9511 H         1 UNK         0.0814 
     99 H99       -71.5036   25.5910  -80.8680 H         1 UNK         0.0814 
    100 H100      -73.1683   25.1077  -81.1344 H         1 UNK         0.0814 
    101 H101      -74.4222   24.8254  -79.0124 H         1 UNK         0.3105 
    102 H102      -76.9390   26.3717  -77.4322 H         1 UNK         0.0547 
    103 H103      -76.6359   24.7044  -79.2669 H         1 UNK         0.0837 
    104 H104      -75.7811   23.6169  -78.1677 H         1 UNK         0.0837 
    105 H105      -77.4741   23.9751  -77.9118 H         1 UNK         0.0837 
    106 H106      -77.0130   25.4439  -75.4136 H         1 UNK         0.3020 
    107 H107      -75.0581   23.1113  -73.6739 H         1 UNK         0.1245 
    108 H108      -75.2501   26.0954  -73.0842 H         1 UNK         0.0781 
    109 H109      -73.8229   25.1003  -72.9521 H         1 UNK         0.0781 
    110 H110      -74.0172   26.6727  -70.4868 H         1 UNK         0.0836 
    111 H111      -75.1471   26.2304  -69.2338 H         1 UNK         0.0836 
    112 H112      -77.3711   24.4847  -72.8621 H         1 UNK         0.3022 
    113 H113      -79.2780   21.6794  -73.3208 H         1 UNK         0.0747 
    114 H114      -80.3637   23.2528  -71.7590 H         1 UNK         0.0793 
    115 H115      -78.6477   23.1620  -71.4118 H         1 UNK         0.0793 
    116 H116      -79.3034   24.5592  -72.2613 H         1 UNK         0.0793 
    117 H117      -79.9402   24.1385  -74.8728 H         1 UNK         0.3047 
    118 H118      -82.2746   22.4860  -76.7593 H         1 UNK         0.0822 
    119 H119      -84.1911   23.9042  -75.9941 H         1 UNK         0.0807 
    120 H120      -83.4082   24.1277  -74.4304 H         1 UNK         0.0807 
    121 H121      -83.9469   22.5300  -74.9281 H         1 UNK         0.0807 
    122 H122      -81.9611   25.2987  -76.0603 H         1 UNK         0.2946 
    123 H123      -79.0535   25.8174  -77.9637 H         1 UNK         0.1144 
    124 H124      -80.6514   25.7596  -79.8813 H         1 UNK         0.0793 
    125 H125      -80.3443   27.4079  -79.3629 H         1 UNK         0.0793 
    126 H126      -81.8543   26.6090  -78.9206 H         1 UNK         0.0793 
    127 H127      -80.9377   27.6641  -76.8849 H         1 UNK         0.2896 
@<TRIPOS>BOND
     1    1    2 1    
     2    1   67 1    
     3    1   68 1    
     4    1   69 1    
     5    2    3 2    
     6    2    4 am   BACKBONE|DICT|INTERRES
     7    4    5 1    
     8    4   70 1    
     9    5    6 1    
    10    5   65 1    
    11    5   71 1    
    12    6    7 1    
    13    6   72 1    
    14    6   73 1    
    15    7    8 1    
    16    8    9 1    
    17    8   74 1    
    18    8   75 1    
    19    9   10 ar   
    20    9   14 ar   
    21   10   11 ar   
    22   10   76 1    
    23   11   12 ar   
    24   11   48 1    
    25   12   13 ar   
    26   12   77 1    
    27   13   14 ar   
    28   13   15 1    
    29   14   78 1    
    30   15   16 1    
    31   15   79 1    
    32   15   80 1    
    33   16   17 1    
    34   17   18 1    
    35   17   81 1    
    36   17   82 1    
    37   18   19 1    
    38   18   22 1    
    39   18   83 1    
    40   19   20 am   BACKBONE|DICT|INTERRES
    41   19   21 2    
    42   20   84 1    
    43   20   85 1    
    44   22   23 am   BACKBONE|DICT|INTERRES
    45   22   86 1    
    46   23   24 2    
    47   23   25 1    
    48   25   26 1    
    49   25   27 1    
    50   25   87 1    
    51   26   88 1    
    52   26   89 1    
    53   26   90 1    
    54   27   28 am   BACKBONE|DICT|INTERRES
    55   27   91 1    
    56   28   29 2    
    57   28   30 1    
    58   30   31 1    
    59   30   32 1    
    60   30   92 1    
    61   31   93 1    
    62   31   94 1    
    63   31   95 1    
    64   32   33 am   BACKBONE|DICT|INTERRES
    65   32   96 1    
    66   33   34 2    
    67   33   35 1    
    68   35   36 1    
    69   35   37 1    
    70   35   97 1    
    71   36   98 1    
    72   36   99 1    
    73   36  100 1    
    74   37   38 am   BACKBONE|DICT|INTERRES
    75   37  101 1    
    76   38   39 2    
    77   38   40 1    
    78   40   41 1    
    79   40   42 1    
    80   40  102 1    
    81   41  103 1    
    82   41  104 1    
    83   41  105 1    
    84   42   43 am   BACKBONE|DICT|INTERRES
    85   42  106 1    
    86   43   44 2    
    87   43   45 1    
    88   45   46 1    
    89   45   49 1    
    90   45  107 1    
    91   46   47 1    
    92   46  108 1    
    93   46  109 1    
    94   47   48 1    
    95   48  110 1    
    96   48  111 1    
    97   49   50 am   BACKBONE|DICT|INTERRES
    98   49  112 1    
    99   50   51 2    
   100   50   52 1    
   101   52   53 1    
   102   52   54 1    
   103   52  113 1    
   104   53  114 1    
   105   53  115 1    
   106   53  116 1    
   107   54   55 am   BACKBONE|DICT|INTERRES
   108   54  117 1    
   109   55   56 2    
   110   55   57 1    
   111   57   58 1    
   112   57   59 1    
   113   57  118 1    
   114   58  119 1    
   115   58  120 1    
   116   58  121 1    
   117   59   60 am   BACKBONE|DICT|INTERRES
   118   59  122 1    
   119   60   61 2    
   120   60   62 1    
   121   62   63 1    
   122   62   64 1    
   123   62  123 1    
   124   63  124 1    
   125   63  125 1    
   126   63  126 1    
   127   64   65 am   BACKBONE|DICT|INTERRES
   128   64  127 1    
   129   65   66 2    
@<TRIPOS>SUBSTRUCTURE
     1 UNK         1 GROUP             0       ****    0 ROOT    
