@<TRIPOS>MOLECULE
3R135
127   129    1
SMALL
USER_CHARGES


@<TRIPOS>ATOM
      1 CA        -80.6954   30.9215  -75.9535 C.3       0 UNK        -0.1998 
      2 C         -80.4072   29.7089  -75.0821 C.2       0 UNK         0.4909 
      3 O         -79.4016   29.0323  -75.2887 O.2       0 UNK        -0.5240 
      4 N         -81.2724   29.4335  -74.0997 N.am      1 UNK        -0.4739 
      5 CA        -81.1555   28.2920  -73.1845 C.3       1 UNK         0.0864 
      6 C6        -82.1119   28.4206  -71.9737 C.3       11 UNK        -0.0881 
      7 S7        -81.9160   29.9967  -71.0751 S.3       11 UNK        -0.2682 
      8 C8        -80.8732   29.5059  -69.6674 C.3       11 UNK         0.0289 
      9 C9        -79.4122   29.3163  -70.0557 C.ar      11 UNK        -0.0687 
     10 C10       -78.8205   28.0510  -69.9971 C.ar      11 UNK        -0.0823 
     11 C11       -77.4552   27.8934  -70.2546 C.ar      11 UNK        -0.0830 
     12 C12       -76.6864   29.0173  -70.5780 C.ar      11 UNK        -0.1021 
     13 C13       -77.2673   30.2892  -70.6747 C.ar      11 UNK        -0.0753 
     14 C14       -78.6337   30.4230  -70.4092 C.ar      11 UNK        -0.0933 
     15 C15       -76.4718   31.5502  -71.0310 C.3       11 UNK         0.0166 
     16 S16       -74.6650   31.3307  -71.2219 S.3       11 UNK        -0.2615 
     17 C17       -74.4357   31.4150  -73.0301 C.3       11 UNK        -0.0865 
     18 CA        -74.6594   30.0508  -73.7481 C.3       10 UNK         0.0862 
     19 C         -76.0657   29.9581  -74.3855 C.2       10 UNK         0.5551 
     20 N         -76.9672   29.1651  -73.8309 N.am      10 UNK        -0.7319 
     21 O         -76.3383   30.6127  -75.3902 O.2       10 UNK        -0.5018 
     22 N         -73.6754   29.8041  -74.8062 N.am      10 UNK        -0.4509 
     23 C         -72.4019   29.4416  -74.6352 C.2       10 UNK         0.4899 
     24 O         -71.8512   29.3514  -73.5370 O.2       10 UNK        -0.4839 
     25 CA        -71.6247   29.1340  -75.9270 C.3       9 UNK         0.0222 
     26 CB        -70.2423   29.8187  -75.9690 C.3       9 UNK        -0.1966 
     27 N         -71.5511   27.6876  -76.1629 N.am      9 UNK        -0.4218 
     28 C         -70.8307   26.7626  -75.5052 C.2       9 UNK         0.5020 
     29 O         -69.9769   27.0254  -74.6570 O.2       9 UNK        -0.5274 
     30 CA        -71.0888   25.2790  -75.8436 C.3       8 UNK         0.0270 
     31 CB        -71.3216   24.4515  -74.5660 C.3       8 UNK        -0.1976 
     32 N         -72.2374   25.0907  -76.7318 N.am      8 UNK        -0.4313 
     33 C         -72.1792   24.9567  -78.0629 C.2       8 UNK         0.5041 
     34 O         -71.1268   24.9366  -78.7021 O.2       8 UNK        -0.5577 
     35 CA        -73.5180   24.8438  -78.8195 C.3       7 UNK         0.0284 
     36 CB        -73.8442   23.3696  -79.1072 C.3       7 UNK        -0.1958 
     37 N         -74.6536   25.4605  -78.1249 N.am      7 UNK        -0.4454 
     38 C         -74.7577   26.7640  -77.8281 C.2       7 UNK         0.5089 
     39 O         -73.9147   27.6073  -78.1357 O.2       7 UNK        -0.5125 
     40 CA        -75.9595   27.1801  -76.9656 C.3       6 UNK         0.0408 
     41 CB        -77.2350   27.3018  -77.8117 C.3       6 UNK        -0.1791 
     42 N         -76.1908   26.2724  -75.8381 N.am      6 UNK        -0.4762 
     43 C         -75.3000   25.9972  -74.8727 C.2       6 UNK         0.5007 
     44 O         -74.1832   26.5056  -74.8095 O.2       6 UNK        -0.5032 
     45 CA        -75.6913   24.9151  -73.8519 C.3       5 UNK         0.0783 
     46 C46       -76.5786   25.4764  -72.7119 C.3       11 UNK        -0.0857 
     47 S47       -75.5537   26.1478  -71.3664 S.3       11 UNK        -0.2512 
     48 C48       -76.8033   26.5228  -70.0916 C.3       11 UNK         0.0225 
     49 N         -76.3051   23.7739  -74.5311 N.am      5 UNK        -0.4615 
     50 C         -75.6198   22.8547  -75.2259 C.2       4 UNK         0.5053 
     51 O         -74.3921   22.8344  -75.3047 O.2       4 UNK        -0.5105 
     52 CA        -76.4369   21.7873  -75.9754 C.3       4 UNK         0.0263 
     53 CB        -76.6345   20.5453  -75.0922 C.3       4 UNK        -0.1981 
     54 N         -77.7422   22.2756  -76.4261 N.am      4 UNK        -0.4224 
     55 C         -77.9154   23.2110  -77.3705 C.2       3 UNK         0.4895 
     56 O         -76.9934   23.7207  -78.0073 O.2       3 UNK        -0.5091 
     57 CA        -79.3567   23.7010  -77.5987 C.3       3 UNK         0.0250 
     58 CB        -80.0825   22.7926  -78.6035 C.3       3 UNK        -0.1996 
     59 N         -80.1511   23.8110  -76.3666 N.am      3 UNK        -0.4254 
     60 C         -79.8260   24.5822  -75.3194 C.2       2 UNK         0.5004 
     61 O         -78.7831   25.2352  -75.2510 O.2       2 UNK        -0.5226 
     62 CA        -80.7831   24.5764  -74.1181 C.3       2 UNK         0.0269 
     63 CB        -80.3668   23.4933  -73.1093 C.3       2 UNK        -0.1926 
     64 N         -80.7689   25.8812  -73.4526 N.am      2 UNK        -0.4687 
     65 C         -81.4058   26.9604  -73.9246 C.2       1 UNK         0.5165 
     66 O         -82.1911   26.9225  -74.8770 O.2       1 UNK        -0.5079 
     67 H67       -79.8545   31.6137  -75.9181 H         1 UNK         0.0900 
     68 H68       -81.5889   31.4542  -75.6287 H         1 UNK         0.0900 
     69 H69       -80.8394   30.6123  -76.9883 H         1 UNK         0.0900 
     70 H70       -82.0869   30.0153  -73.9681 H         1 UNK         0.2959 
     71 H71       -80.1285   28.2804  -72.8112 H         1 UNK         0.1079 
     72 H72       -81.9678   27.5906  -71.2794 H         1 UNK         0.0837 
     73 H73       -83.1512   28.3575  -72.3029 H         1 UNK         0.0837 
     74 H74       -80.9325   30.2859  -68.9070 H         1 UNK         0.0685 
     75 H75       -81.2800   28.6055  -69.2046 H         1 UNK         0.0685 
     76 H76       -79.4154   27.1948  -69.7093 H         1 UNK         0.1434 
     77 H77       -75.6271   28.8881  -70.7425 H         1 UNK         0.1329 
     78 H78       -79.0944   31.4006  -70.4558 H         1 UNK         0.1335 
     79 H79       -76.6295   32.2872  -70.2422 H         1 UNK         0.0680 
     80 H80       -76.8885   31.9853  -71.9404 H         1 UNK         0.0680 
     81 H81       -75.0507   32.2134  -73.4505 H         1 UNK         0.1032 
     82 H82       -73.4096   31.7536  -73.1795 H         1 UNK         0.1032 
     83 H83       -74.5542   29.2346  -73.0297 H         1 UNK         0.0461 
     84 H84       -76.7801   28.6673  -72.9757 H         1 UNK         0.3453 
     85 H85       -77.8726   29.0874  -74.2893 H         1 UNK         0.3453 
     86 H86       -74.0575   29.8467  -75.7418 H         1 UNK         0.2984 
     87 H87       -72.1962   29.5340  -76.7664 H         1 UNK         0.0554 
     88 H88       -69.7047   29.5737  -76.8848 H         1 UNK         0.0847 
     89 H89       -69.6137   29.5364  -75.1243 H         1 UNK         0.0847 
     90 H90       -70.3505   30.9033  -75.9353 H         1 UNK         0.0847 
     91 H91       -72.2395   27.3445  -76.8233 H         1 UNK         0.3141 
     92 H92       -70.1858   24.9006  -76.3270 H         1 UNK         0.0743 
     93 H93       -72.1751   24.8212  -73.9968 H         1 UNK         0.0784 
     94 H94       -71.5060   23.4028  -74.8004 H         1 UNK         0.0784 
     95 H95       -70.4516   24.4873  -73.9092 H         1 UNK         0.0784 
     96 H96       -73.1468   25.1246  -76.2872 H         1 UNK         0.3213 
     97 H97       -73.3961   25.3613  -79.7733 H         1 UNK         0.0855 
     98 H98       -74.0015   22.8063  -78.1866 H         1 UNK         0.0814 
     99 H99       -73.0309   22.8872  -79.6511 H         1 UNK         0.0814 
    100 H100      -74.7431   23.2730  -79.7164 H         1 UNK         0.0814 
    101 H101      -75.4264   24.8461  -77.8777 H         1 UNK         0.3105 
    102 H102      -75.7372   28.1630  -76.5526 H         1 UNK         0.0547 
    103 H103      -77.5007   26.3576  -78.2857 H         1 UNK         0.0837 
    104 H104      -78.0822   27.6220  -77.2050 H         1 UNK         0.0837 
    105 H105      -77.1061   28.0399  -78.6041 H         1 UNK         0.0837 
    106 H106      -77.1121   25.8423  -75.7755 H         1 UNK         0.3020 
    107 H107      -74.7608   24.5488  -73.4101 H         1 UNK         0.1245 
    108 H108      -77.2826   26.2328  -73.0655 H         1 UNK         0.0781 
    109 H109      -77.1834   24.6768  -72.2826 H         1 UNK         0.0781 
    110 H110      -77.5532   25.7304  -70.0767 H         1 UNK         0.0836 
    111 H111      -76.3144   26.4970  -69.1170 H         1 UNK         0.0836 
    112 H112      -77.3138   23.7847  -74.5931 H         1 UNK         0.3022 
    113 H113      -75.8637   21.4932  -76.8574 H         1 UNK         0.0747 
    114 H114      -77.1442   19.7490  -75.6349 H         1 UNK         0.0793 
    115 H115      -75.6744   20.1462  -74.7616 H         1 UNK         0.0793 
    116 H116      -77.2181   20.7717  -74.1988 H         1 UNK         0.0793 
    117 H117      -78.5577   21.9074  -75.9587 H         1 UNK         0.3047 
    118 H118      -79.2929   24.7012  -78.0317 H         1 UNK         0.0822 
    119 H119      -81.0659   23.1881  -78.8584 H         1 UNK         0.0807 
    120 H120      -80.2164   21.7823  -78.2148 H         1 UNK         0.0807 
    121 H121      -79.5182   22.7115  -79.5339 H         1 UNK         0.0807 
    122 H122      -81.0160   23.2894  -76.3401 H         1 UNK         0.2946 
    123 H123      -81.7959   24.3636  -74.4687 H         1 UNK         0.1144 
    124 H124      -81.0413   23.4706  -72.2531 H         1 UNK         0.0793 
    125 H125      -79.3558   23.6532  -72.7337 H         1 UNK         0.0793 
    126 H126      -80.3925   22.5023  -73.5644 H         1 UNK         0.0793 
    127 H127      -80.1224   25.9872  -72.6853 H         1 UNK         0.2896 
@<TRIPOS>BOND
     1    1    2 1    
     2    1   67 1    
     3    1   68 1    
     4    1   69 1    
     5    2    3 2    
     6    2    4 am   BACKBONE|DICT|INTERRES
     7    4    5 1    
     8    4   70 1    
     9    5    6 1    
    10    5   65 1    
    11    5   71 1    
    12    6    7 1    
    13    6   72 1    
    14    6   73 1    
    15    7    8 1    
    16    8    9 1    
    17    8   74 1    
    18    8   75 1    
    19    9   10 ar   
    20    9   14 ar   
    21   10   11 ar   
    22   10   76 1    
    23   11   12 ar   
    24   11   48 1    
    25   12   13 ar   
    26   12   77 1    
    27   13   14 ar   
    28   13   15 1    
    29   14   78 1    
    30   15   16 1    
    31   15   79 1    
    32   15   80 1    
    33   16   17 1    
    34   17   18 1    
    35   17   81 1    
    36   17   82 1    
    37   18   19 1    
    38   18   22 1    
    39   18   83 1    
    40   19   20 am   BACKBONE|DICT|INTERRES
    41   19   21 2    
    42   20   84 1    
    43   20   85 1    
    44   22   23 am   BACKBONE|DICT|INTERRES
    45   22   86 1    
    46   23   24 2    
    47   23   25 1    
    48   25   26 1    
    49   25   27 1    
    50   25   87 1    
    51   26   88 1    
    52   26   89 1    
    53   26   90 1    
    54   27   28 am   BACKBONE|DICT|INTERRES
    55   27   91 1    
    56   28   29 2    
    57   28   30 1    
    58   30   31 1    
    59   30   32 1    
    60   30   92 1    
    61   31   93 1    
    62   31   94 1    
    63   31   95 1    
    64   32   33 am   BACKBONE|DICT|INTERRES
    65   32   96 1    
    66   33   34 2    
    67   33   35 1    
    68   35   36 1    
    69   35   37 1    
    70   35   97 1    
    71   36   98 1    
    72   36   99 1    
    73   36  100 1    
    74   37   38 am   BACKBONE|DICT|INTERRES
    75   37  101 1    
    76   38   39 2    
    77   38   40 1    
    78   40   41 1    
    79   40   42 1    
    80   40  102 1    
    81   41  103 1    
    82   41  104 1    
    83   41  105 1    
    84   42   43 am   BACKBONE|DICT|INTERRES
    85   42  106 1    
    86   43   44 2    
    87   43   45 1    
    88   45   46 1    
    89   45   49 1    
    90   45  107 1    
    91   46   47 1    
    92   46  108 1    
    93   46  109 1    
    94   47   48 1    
    95   48  110 1    
    96   48  111 1    
    97   49   50 am   BACKBONE|DICT|INTERRES
    98   49  112 1    
    99   50   51 2    
   100   50   52 1    
   101   52   53 1    
   102   52   54 1    
   103   52  113 1    
   104   53  114 1    
   105   53  115 1    
   106   53  116 1    
   107   54   55 am   BACKBONE|DICT|INTERRES
   108   54  117 1    
   109   55   56 2    
   110   55   57 1    
   111   57   58 1    
   112   57   59 1    
   113   57  118 1    
   114   58  119 1    
   115   58  120 1    
   116   58  121 1    
   117   59   60 am   BACKBONE|DICT|INTERRES
   118   59  122 1    
   119   60   61 2    
   120   60   62 1    
   121   62   63 1    
   122   62   64 1    
   123   62  123 1    
   124   63  124 1    
   125   63  125 1    
   126   63  126 1    
   127   64   65 am   BACKBONE|DICT|INTERRES
   128   64  127 1    
   129   65   66 2    
@<TRIPOS>SUBSTRUCTURE
     1 UNK         1 GROUP             0       ****    0 ROOT    
