@<TRIPOS>MOLECULE
3R135
127   129    1
SMALL
USER_CHARGES


@<TRIPOS>ATOM
      1 CA        -80.5561   23.3005  -69.3616 C.3       0 UNK        -0.1998 
      2 C         -81.2455   23.9186  -70.5688 C.2       0 UNK         0.4909 
      3 O         -82.2646   23.3982  -71.0256 O.2       0 UNK        -0.5240 
      4 N         -80.7024   25.0299  -71.0804 N.am      1 UNK        -0.4739 
      5 CA        -81.1919   25.7265  -72.2762 C.3       1 UNK         0.0864 
      6 C6        -80.6694   27.1830  -72.3521 C.3       11 UNK        -0.0881 
      7 S7        -81.1487   28.1798  -70.8988 S.3       11 UNK        -0.2682 
      8 C8        -79.5205   28.7314  -70.2720 C.3       11 UNK         0.0289 
      9 C9        -78.7778   29.7646  -71.1273 C.ar      11 UNK        -0.0687 
     10 C10       -79.2652   30.2363  -72.3542 C.ar      11 UNK        -0.0823 
     11 C11       -78.5359   31.1546  -73.1131 C.ar      11 UNK        -0.0830 
     12 C12       -77.3258   31.6448  -72.6207 C.ar      11 UNK        -0.1021 
     13 C13       -76.8295   31.1990  -71.3935 C.ar      11 UNK        -0.0753 
     14 C14       -77.5540   30.2551  -70.6583 C.ar      11 UNK        -0.0933 
     15 C15       -75.5138   31.7489  -70.8652 C.3       11 UNK         0.0166 
     16 S16       -74.0982   31.1671  -71.8466 S.3       11 UNK        -0.2615 
     17 C17       -74.0103   29.4169  -71.3398 C.3       11 UNK        -0.0865 
     18 CA        -72.7438   28.7214  -71.9070 C.3       10 UNK         0.0862 
     19 C         -72.4513   27.3453  -71.2407 C.2       10 UNK         0.5551 
     20 N         -71.8310   26.3976  -71.9345 N.am      10 UNK        -0.7319 
     21 O         -72.7669   27.1333  -70.0723 O.2       10 UNK        -0.5018 
     22 N         -72.8095   28.6144  -73.3714 N.am      10 UNK        -0.4509 
     23 C         -71.9701   29.1847  -74.2408 C.2       10 UNK         0.4899 
     24 O         -71.0571   29.9482  -73.9199 O.2       10 UNK        -0.4839 
     25 CA        -72.1781   28.8054  -75.7222 C.3       9 UNK         0.0222 
     26 CB        -71.0364   29.3022  -76.6338 C.3       9 UNK        -0.1966 
     27 N         -72.4006   27.3666  -75.9304 N.am      9 UNK        -0.4218 
     28 C         -71.6162   26.3564  -75.5189 C.2       9 UNK         0.5020 
     29 O         -70.5910   26.5072  -74.8528 O.2       9 UNK        -0.5274 
     30 CA        -72.0515   24.9235  -75.8692 C.3       8 UNK         0.0270 
     31 CB        -72.5958   24.2138  -74.6209 C.3       8 UNK        -0.1976 
     32 N         -73.0450   24.8517  -76.9446 N.am      8 UNK        -0.4313 
     33 C         -72.7421   24.9631  -78.2450 C.2       8 UNK         0.5041 
     34 O         -71.6116   25.2137  -78.6647 O.2       8 UNK        -0.5577 
     35 CA        -73.8809   24.7516  -79.2477 C.3       7 UNK         0.0284 
     36 CB        -74.2665   23.2640  -79.3345 C.3       7 UNK        -0.1958 
     37 N         -75.0605   25.5467  -78.8981 N.am      7 UNK        -0.4454 
     38 C         -75.5570   26.5243  -79.6663 C.2       7 UNK         0.5089 
     39 O         -75.0381   26.9022  -80.7178 O.2       7 UNK        -0.5125 
     40 CA        -76.8743   27.1806  -79.2244 C.3       6 UNK         0.0408 
     41 CB        -78.0726   26.4397  -79.8391 C.3       6 UNK        -0.1791 
     42 N         -77.0684   27.2869  -77.7777 N.am      6 UNK        -0.4762 
     43 C         -76.3974   28.1320  -76.9810 C.2       6 UNK         0.5007 
     44 O         -75.3834   28.7401  -77.3226 O.2       6 UNK        -0.5032 
     45 CA        -76.9835   28.3434  -75.5724 C.3       5 UNK         0.0783 
     46 C46       -78.3366   29.1013  -75.6327 C.3       11 UNK        -0.0857 
     47 S47       -78.1015   30.9003  -75.8499 S.3       11 UNK        -0.2512 
     48 C48       -79.0569   31.6104  -74.4684 C.3       11 UNK         0.0225 
     49 N         -77.1185   27.0525  -74.9040 N.am      5 UNK        -0.4615 
     50 C         -76.1461   26.4640  -74.1959 C.2       4 UNK         0.5053 
     51 O         -75.0639   26.9918  -73.9428 O.2       4 UNK        -0.5105 
     52 CA        -76.4090   25.0200  -73.7304 C.3       4 UNK         0.0263 
     53 CB        -77.0542   25.0074  -72.3371 C.3       4 UNK        -0.1981 
     54 N         -77.2248   24.2570  -74.6820 N.am      4 UNK        -0.4224 
     55 C         -76.8354   23.9840  -75.9385 C.2       3 UNK         0.4895 
     56 O         -75.7311   24.2930  -76.3880 O.2       3 UNK        -0.5091 
     57 CA        -77.8410   23.3059  -76.8843 C.3       3 UNK         0.0250 
     58 CB        -77.5885   21.7913  -76.9303 C.3       3 UNK        -0.1996 
     59 N         -79.2478   23.5542  -76.5611 N.am      3 UNK        -0.4254 
     60 C         -79.8402   24.7537  -76.4693 C.2       2 UNK         0.5004 
     61 O         -79.2574   25.8243  -76.6567 O.2       2 UNK        -0.5226 
     62 CA        -81.3174   24.7705  -76.0288 C.3       2 UNK         0.0269 
     63 CB        -82.0182   23.3955  -76.1208 C.3       2 UNK        -0.1926 
     64 N         -81.4824   25.3269  -74.6785 N.am      2 UNK        -0.4687 
     65 C         -80.8325   24.9532  -73.5640 C.2       1 UNK         0.5165 
     66 O         -79.9642   24.0748  -73.5383 O.2       1 UNK        -0.5079 
     67 H67       -81.2423   23.2619  -68.5160 H         1 UNK         0.0900 
     68 H68       -80.2396   22.2834  -69.5915 H         1 UNK         0.0900 
     69 H69       -79.6765   23.8686  -69.0590 H         1 UNK         0.0900 
     70 H70       -79.8651   25.4090  -70.6650 H         1 UNK         0.2959 
     71 H71       -82.2825   25.7600  -72.2169 H         1 UNK         0.1079 
     72 H72       -79.5852   27.2031  -72.4709 H         1 UNK         0.0837 
     73 H73       -81.0731   27.6870  -73.2322 H         1 UNK         0.0837 
     74 H74       -79.6757   29.1562  -69.2793 H         1 UNK         0.0685 
     75 H75       -78.8827   27.8570  -70.1349 H         1 UNK         0.0685 
     76 H76       -80.2094   29.8879  -72.7432 H         1 UNK         0.1434 
     77 H77       -76.7603   32.3618  -73.2006 H         1 UNK         0.1329 
     78 H78       -77.1663   29.9041  -69.7115 H         1 UNK         0.1335 
     79 H79       -75.5427   32.8388  -70.9032 H         1 UNK         0.0680 
     80 H80       -75.3670   31.4835  -69.8170 H         1 UNK         0.0680 
     81 H81       -74.0148   29.3884  -70.2487 H         1 UNK         0.1032 
     82 H82       -74.9130   28.8975  -71.6676 H         1 UNK         0.1032 
     83 H83       -71.8868   29.3352  -71.6250 H         1 UNK         0.0461 
     84 H84       -71.5079   26.5772  -72.8761 H         1 UNK         0.3453 
     85 H85       -71.6344   25.5148  -71.4914 H         1 UNK         0.3453 
     86 H86       -73.5347   27.9878  -73.7170 H         1 UNK         0.2984 
     87 H87       -73.0930   29.3087  -76.0358 H         1 UNK         0.0554 
     88 H88       -70.9274   30.3856  -76.5710 H         1 UNK         0.0847 
     89 H89       -71.2285   29.0572  -77.6783 H         1 UNK         0.0847 
     90 H90       -70.0784   28.8609  -76.3565 H         1 UNK         0.0847 
     91 H91       -73.2425   27.1254  -76.4342 H         1 UNK         0.3141 
     92 H92       -71.1608   24.3822  -76.1959 H         1 UNK         0.0743 
     93 H93       -73.3400   24.8242  -74.1137 H         1 UNK         0.0784 
     94 H94       -73.0461   23.2505  -74.8617 H         1 UNK         0.0784 
     95 H95       -71.7950   24.0287  -73.9041 H         1 UNK         0.0784 
     96 H96       -74.0033   24.6261  -76.6777 H         1 UNK         0.3213 
     97 H97       -73.4975   25.0435  -80.2279 H         1 UNK         0.0855 
     98 H98       -74.6440   22.8799  -78.3869 H         1 UNK         0.0814 
     99 H99       -73.4051   22.6549  -79.6115 H         1 UNK         0.0814 
    100 H100      -75.0348   23.0997  -80.0900 H         1 UNK         0.0814 
    101 H101      -75.5262   25.3128  -78.0271 H         1 UNK         0.3105 
    102 H102      -76.8751   28.1963  -79.6261 H         1 UNK         0.0547 
    103 H103      -77.9827   26.3833  -80.9249 H         1 UNK         0.0837 
    104 H104      -78.1534   25.4190  -79.4661 H         1 UNK         0.0837 
    105 H105      -79.0103   26.9503  -79.6193 H         1 UNK         0.0837 
    106 H106      -77.8780   26.8010  -77.3956 H         1 UNK         0.3020 
    107 H107      -76.2764   28.9539  -75.0040 H         1 UNK         0.1245 
    108 H108      -78.8957   28.9244  -74.7151 H         1 UNK         0.0781 
    109 H109      -78.9821   28.7282  -76.4303 H         1 UNK         0.0781 
    110 H110      -80.1092   31.3492  -74.5911 H         1 UNK         0.0836 
    111 H111      -79.0058   32.6986  -74.5264 H         1 UNK         0.0836 
    112 H112      -77.9457   26.5162  -75.1355 H         1 UNK         0.3022 
    113 H113      -75.4509   24.5092  -73.6490 H         1 UNK         0.0747 
    114 H114      -77.2273   23.9896  -71.9872 H         1 UNK         0.0793 
    115 H115      -76.4091   25.4982  -71.6068 H         1 UNK         0.0793 
    116 H116      -78.0079   25.5303  -72.3299 H         1 UNK         0.0793 
    117 H117      -78.1611   23.9977  -74.3821 H         1 UNK         0.3047 
    118 H118      -77.6611   23.7086  -77.8822 H         1 UNK         0.0822 
    119 H119      -78.2155   21.3062  -77.6786 H         1 UNK         0.0807 
    120 H120      -77.7872   21.3197  -75.9669 H         1 UNK         0.0807 
    121 H121      -76.5515   21.5746  -77.1912 H         1 UNK         0.0807 
    122 H122      -79.8062   22.7415  -76.3438 H         1 UNK         0.2946 
    123 H123      -81.8244   25.4485  -76.7178 H         1 UNK         0.1144 
    124 H124      -83.0839   23.4897  -75.9117 H         1 UNK         0.0793 
    125 H125      -81.6119   22.6735  -75.4112 H         1 UNK         0.0793 
    126 H126      -81.9299   22.9704  -77.1218 H         1 UNK         0.0793 
    127 H127      -82.1503   26.0823  -74.6082 H         1 UNK         0.2896 
@<TRIPOS>BOND
     1    1    2 1    
     2    1   67 1    
     3    1   68 1    
     4    1   69 1    
     5    2    3 2    
     6    2    4 am   BACKBONE|DICT|INTERRES
     7    4    5 1    
     8    4   70 1    
     9    5    6 1    
    10    5   65 1    
    11    5   71 1    
    12    6    7 1    
    13    6   72 1    
    14    6   73 1    
    15    7    8 1    
    16    8    9 1    
    17    8   74 1    
    18    8   75 1    
    19    9   10 ar   
    20    9   14 ar   
    21   10   11 ar   
    22   10   76 1    
    23   11   12 ar   
    24   11   48 1    
    25   12   13 ar   
    26   12   77 1    
    27   13   14 ar   
    28   13   15 1    
    29   14   78 1    
    30   15   16 1    
    31   15   79 1    
    32   15   80 1    
    33   16   17 1    
    34   17   18 1    
    35   17   81 1    
    36   17   82 1    
    37   18   19 1    
    38   18   22 1    
    39   18   83 1    
    40   19   20 am   BACKBONE|DICT|INTERRES
    41   19   21 2    
    42   20   84 1    
    43   20   85 1    
    44   22   23 am   BACKBONE|DICT|INTERRES
    45   22   86 1    
    46   23   24 2    
    47   23   25 1    
    48   25   26 1    
    49   25   27 1    
    50   25   87 1    
    51   26   88 1    
    52   26   89 1    
    53   26   90 1    
    54   27   28 am   BACKBONE|DICT|INTERRES
    55   27   91 1    
    56   28   29 2    
    57   28   30 1    
    58   30   31 1    
    59   30   32 1    
    60   30   92 1    
    61   31   93 1    
    62   31   94 1    
    63   31   95 1    
    64   32   33 am   BACKBONE|DICT|INTERRES
    65   32   96 1    
    66   33   34 2    
    67   33   35 1    
    68   35   36 1    
    69   35   37 1    
    70   35   97 1    
    71   36   98 1    
    72   36   99 1    
    73   36  100 1    
    74   37   38 am   BACKBONE|DICT|INTERRES
    75   37  101 1    
    76   38   39 2    
    77   38   40 1    
    78   40   41 1    
    79   40   42 1    
    80   40  102 1    
    81   41  103 1    
    82   41  104 1    
    83   41  105 1    
    84   42   43 am   BACKBONE|DICT|INTERRES
    85   42  106 1    
    86   43   44 2    
    87   43   45 1    
    88   45   46 1    
    89   45   49 1    
    90   45  107 1    
    91   46   47 1    
    92   46  108 1    
    93   46  109 1    
    94   47   48 1    
    95   48  110 1    
    96   48  111 1    
    97   49   50 am   BACKBONE|DICT|INTERRES
    98   49  112 1    
    99   50   51 2    
   100   50   52 1    
   101   52   53 1    
   102   52   54 1    
   103   52  113 1    
   104   53  114 1    
   105   53  115 1    
   106   53  116 1    
   107   54   55 am   BACKBONE|DICT|INTERRES
   108   54  117 1    
   109   55   56 2    
   110   55   57 1    
   111   57   58 1    
   112   57   59 1    
   113   57  118 1    
   114   58  119 1    
   115   58  120 1    
   116   58  121 1    
   117   59   60 am   BACKBONE|DICT|INTERRES
   118   59  122 1    
   119   60   61 2    
   120   60   62 1    
   121   62   63 1    
   122   62   64 1    
   123   62  123 1    
   124   63  124 1    
   125   63  125 1    
   126   63  126 1    
   127   64   65 am   BACKBONE|DICT|INTERRES
   128   64  127 1    
   129   65   66 2    
@<TRIPOS>SUBSTRUCTURE
     1 UNK         1 GROUP             0       ****    0 ROOT    
