@<TRIPOS>MOLECULE
3R135
127   129    1
SMALL
USER_CHARGES


@<TRIPOS>ATOM
      1 CA        -84.4660   25.0883  -73.2625 C.3       0 UNK        -0.1998 
      2 C         -83.6049   26.0370  -74.0822 C.2       0 UNK         0.4909 
      3 O         -84.0540   26.5381  -75.1144 O.2       0 UNK        -0.5240 
      4 N         -82.3688   26.2906  -73.6323 N.am      1 UNK        -0.4739 
      5 CA        -81.3743   27.1179  -74.3226 C.3       1 UNK         0.0864 
      6 C6        -80.3401   27.6968  -73.3238 C.3       11 UNK        -0.0881 
      7 S7        -79.6043   29.2636  -73.9072 S.3       11 UNK        -0.2682 
      8 C8        -79.1932   30.0925  -72.3324 C.3       11 UNK         0.0289 
      9 C9        -77.8777   29.5835  -71.7588 C.ar      11 UNK        -0.0687 
     10 C10       -77.8068   28.3100  -71.1909 C.ar      11 UNK        -0.0823 
     11 C11       -76.5879   27.7935  -70.7489 C.ar      11 UNK        -0.0830 
     12 C12       -75.4430   28.5928  -70.8014 C.ar      11 UNK        -0.1021 
     13 C13       -75.5012   29.8828  -71.3399 C.ar      11 UNK        -0.0753 
     14 C14       -76.7237   30.3713  -71.8174 C.ar      11 UNK        -0.0933 
     15 C15       -74.2413   30.7384  -71.3998 C.3       11 UNK         0.0166 
     16 S16       -73.9298   31.4094  -73.0652 S.3       11 UNK        -0.2615 
     17 C17       -72.2309   32.0547  -72.8678 C.3       11 UNK        -0.0865 
     18 CA        -71.2333   31.4201  -73.8792 C.3       10 UNK         0.0862 
     19 C         -69.8107   32.0544  -73.8126 C.2       10 UNK         0.5551 
     20 N         -68.7481   31.3183  -74.1153 N.am      10 UNK        -0.7319 
     21 O         -69.6661   33.2373  -73.5125 O.2       10 UNK        -0.5018 
     22 N         -71.2598   29.9468  -73.8685 N.am      10 UNK        -0.4509 
     23 C         -70.8921   29.1441  -72.8582 C.2       10 UNK         0.4899 
     24 O         -70.4281   29.5577  -71.7954 O.2       10 UNK        -0.4839 
     25 CA        -71.0895   27.6230  -73.0364 C.3       9 UNK         0.0222 
     26 CB        -72.0511   27.0710  -71.9705 C.3       9 UNK        -0.1966 
     27 N         -71.6087   27.2522  -74.3532 N.am      9 UNK        -0.4218 
     28 C         -70.9023   27.1978  -75.4896 C.2       9 UNK         0.5020 
     29 O         -69.6820   27.3496  -75.5508 O.2       9 UNK        -0.5274 
     30 CA        -71.7132   26.9898  -76.7807 C.3       8 UNK         0.0270 
     31 CB        -71.7535   25.5019  -77.1634 C.3       8 UNK        -0.1976 
     32 N         -73.0829   27.5141  -76.6795 N.am      8 UNK        -0.4313 
     33 C         -73.3881   28.8212  -76.6098 C.2       8 UNK         0.5041 
     34 O         -72.5265   29.7011  -76.6154 O.2       8 UNK        -0.5577 
     35 CA        -74.8698   29.2328  -76.4547 C.3       7 UNK         0.0284 
     36 CB        -75.2253   30.4590  -77.3207 C.3       7 UNK        -0.1958 
     37 N         -75.8335   28.1444  -76.6590 N.am      7 UNK        -0.4454 
     38 C         -76.0510   27.4271  -77.7722 C.2       7 UNK         0.5089 
     39 O         -75.5233   27.6654  -78.8589 O.2       7 UNK        -0.5125 
     40 CA        -76.9835   26.2045  -77.6216 C.3       6 UNK         0.0408 
     41 CB        -76.6512   25.0898  -78.6354 C.3       6 UNK        -0.1791 
     42 N         -77.0301   25.6519  -76.2573 N.am      6 UNK        -0.4762 
     43 C         -75.9910   25.2023  -75.5308 C.2       6 UNK         0.5007 
     44 O         -74.8275   25.2270  -75.9321 O.2       6 UNK        -0.5032 
     45 CA        -76.2718   24.6855  -74.1100 C.3       5 UNK         0.0783 
     46 C46       -76.1627   25.8406  -73.0815 C.3       11 UNK        -0.0857 
     47 S47       -75.5926   25.2791  -71.4387 S.3       11 UNK        -0.2512 
     48 C48       -76.5100   26.3485  -70.2744 C.3       11 UNK         0.0225 
     49 N         -77.5712   24.0098  -74.0606 N.am      5 UNK        -0.4615 
     50 C         -77.8037   22.8470  -73.4423 C.2       4 UNK         0.5053 
     51 O         -76.9656   22.2288  -72.7854 O.2       4 UNK        -0.5105 
     52 CA        -79.2119   22.2554  -73.6168 C.3       4 UNK         0.0263 
     53 CB        -80.2406   23.0345  -72.7796 C.3       4 UNK        -0.1981 
     54 N         -79.6394   22.2312  -75.0174 N.am      4 UNK        -0.4224 
     55 C         -79.0669   21.5268  -76.0036 C.2       3 UNK         0.4895 
     56 O         -78.1206   20.7583  -75.8310 O.2       3 UNK        -0.5091 
     57 CA        -79.6225   21.7069  -77.4322 C.3       3 UNK         0.0250 
     58 CB        -80.7407   20.6868  -77.7246 C.3       3 UNK        -0.1996 
     59 N         -80.0368   23.0799  -77.7679 N.am      3 UNK        -0.4254 
     60 C         -81.0399   23.7982  -77.2457 C.2       2 UNK         0.5004 
     61 O         -81.8404   23.3652  -76.4131 O.2       2 UNK        -0.5226 
     62 CA        -81.1338   25.2667  -77.6911 C.3       2 UNK         0.0269 
     63 CB        -82.1937   25.4308  -78.7913 C.3       2 UNK        -0.1926 
     64 N         -81.4687   26.1413  -76.5650 N.am      2 UNK        -0.4687 
     65 C         -80.7294   26.2950  -75.4577 C.2       1 UNK         0.5165 
     66 O         -79.6250   25.7650  -75.2952 O.2       1 UNK        -0.5079 
     67 H67       -84.7329   24.2169  -73.8600 H         1 UNK         0.0900 
     68 H68       -85.3851   25.5861  -72.9546 H         1 UNK         0.0900 
     69 H69       -83.9515   24.7404  -72.3669 H         1 UNK         0.0900 
     70 H70       -82.0518   25.8388  -72.7867 H         1 UNK         0.2959 
     71 H71       -81.9003   27.9587  -74.7819 H         1 UNK         0.1079 
     72 H72       -79.5521   26.9788  -73.0935 H         1 UNK         0.0837 
     73 H73       -80.8368   27.9056  -72.3751 H         1 UNK         0.0837 
     74 H74       -79.1319   31.1663  -72.5158 H         1 UNK         0.0685 
     75 H75       -79.9973   29.9565  -71.6079 H         1 UNK         0.0685 
     76 H76       -78.6947   27.6988  -71.1314 H         1 UNK         0.1434 
     77 H77       -74.5041   28.1964  -70.4412 H         1 UNK         0.1329 
     78 H78       -76.7707   31.3617  -72.2491 H         1 UNK         0.1335 
     79 H79       -74.3343   31.5628  -70.6916 H         1 UNK         0.0680 
     80 H80       -73.3735   30.1539  -71.0893 H         1 UNK         0.0680 
     81 H81       -71.8828   31.9011  -71.8452 H         1 UNK         0.1032 
     82 H82       -72.2749   33.1363  -73.0074 H         1 UNK         0.1032 
     83 H83       -71.5909   31.6905  -74.8733 H         1 UNK         0.0461 
     84 H84       -67.8304   31.7333  -74.0811 H         1 UNK         0.3453 
     85 H85       -68.8586   30.3504  -74.3738 H         1 UNK         0.3453 
     86 H86       -71.6138   29.5346  -74.7234 H         1 UNK         0.2984 
     87 H87       -70.1149   27.1508  -72.8976 H         1 UNK         0.0554 
     88 H88       -72.1222   25.9843  -72.0227 H         1 UNK         0.0847 
     89 H89       -73.0551   27.4760  -72.0944 H         1 UNK         0.0847 
     90 H90       -71.7167   27.3228  -70.9632 H         1 UNK         0.0847 
     91 H91       -72.6048   27.1037  -74.4187 H         1 UNK         0.3141 
     92 H92       -71.2051   27.5327  -77.5808 H         1 UNK         0.0743 
     93 H93       -72.2095   24.8941  -76.3811 H         1 UNK         0.0784 
     94 H94       -72.3166   25.3426  -78.0832 H         1 UNK         0.0784 
     95 H95       -70.7465   25.1160  -77.3280 H         1 UNK         0.0784 
     96 H96       -73.8284   26.8253  -76.6329 H         1 UNK         0.3213 
     97 H97       -74.9803   29.5317  -75.4109 H         1 UNK         0.0855 
     98 H98       -74.6075   31.3175  -77.0538 H         1 UNK         0.0814 
     99 H99       -76.2647   30.7558  -77.1809 H         1 UNK         0.0814 
    100 H100      -75.0691   30.2659  -78.3823 H         1 UNK         0.0814 
    101 H101      -76.3408   27.8570  -75.8339 H         1 UNK         0.3105 
    102 H102      -77.9888   26.5669  -77.8379 H         1 UNK         0.0547 
    103 H103      -76.7790   25.4401  -79.6603 H         1 UNK         0.0837 
    104 H104      -75.6196   24.7502  -78.5355 H         1 UNK         0.0837 
    105 H105      -77.2991   24.2242  -78.5054 H         1 UNK         0.0837 
    106 H106      -77.9564   25.6669  -75.8320 H         1 UNK         0.3020 
    107 H107      -75.4791   23.9598  -73.9112 H         1 UNK         0.1245 
    108 H108      -77.1231   26.3496  -72.9997 H         1 UNK         0.0781 
    109 H109      -75.4474   26.6024  -73.3998 H         1 UNK         0.0781 
    110 H110      -76.0253   26.3110  -69.2980 H         1 UNK         0.0836 
    111 H111      -77.5091   25.9327  -70.1350 H         1 UNK         0.0836 
    112 H112      -78.3333   24.4491  -74.5652 H         1 UNK         0.3022 
    113 H113      -79.1887   21.2241  -73.2585 H         1 UNK         0.0747 
    114 H114      -81.2281   22.5762  -72.8386 H         1 UNK         0.0793 
    115 H115      -79.9534   23.0522  -71.7273 H         1 UNK         0.0793 
    116 H116      -80.3319   24.0692  -73.1105 H         1 UNK         0.0793 
    117 H117      -80.4481   22.7941  -75.2682 H         1 UNK         0.3047 
    118 H118      -78.7965   21.4821  -78.1092 H         1 UNK         0.0822 
    119 H119      -81.0923   20.7675  -78.7532 H         1 UNK         0.0807 
    120 H120      -81.5992   20.8175  -77.0652 H         1 UNK         0.0807 
    121 H121      -80.3806   19.6667  -77.5846 H         1 UNK         0.0807 
    122 H122      -79.4416   23.5380  -78.4434 H         1 UNK         0.2946 
    123 H123      -80.1665   25.5834  -78.0845 H         1 UNK         0.1144 
    124 H124      -81.9622   24.8059  -79.6550 H         1 UNK         0.0793 
    125 H125      -82.2455   26.4615  -79.1427 H         1 UNK         0.0793 
    126 H126      -83.1862   25.1459  -78.4390 H         1 UNK         0.0793 
    127 H127      -82.4119   26.5108  -76.5444 H         1 UNK         0.2896 
@<TRIPOS>BOND
     1    1    2 1    
     2    1   67 1    
     3    1   68 1    
     4    1   69 1    
     5    2    3 2    
     6    2    4 am   BACKBONE|DICT|INTERRES
     7    4    5 1    
     8    4   70 1    
     9    5    6 1    
    10    5   65 1    
    11    5   71 1    
    12    6    7 1    
    13    6   72 1    
    14    6   73 1    
    15    7    8 1    
    16    8    9 1    
    17    8   74 1    
    18    8   75 1    
    19    9   10 ar   
    20    9   14 ar   
    21   10   11 ar   
    22   10   76 1    
    23   11   12 ar   
    24   11   48 1    
    25   12   13 ar   
    26   12   77 1    
    27   13   14 ar   
    28   13   15 1    
    29   14   78 1    
    30   15   16 1    
    31   15   79 1    
    32   15   80 1    
    33   16   17 1    
    34   17   18 1    
    35   17   81 1    
    36   17   82 1    
    37   18   19 1    
    38   18   22 1    
    39   18   83 1    
    40   19   20 am   BACKBONE|DICT|INTERRES
    41   19   21 2    
    42   20   84 1    
    43   20   85 1    
    44   22   23 am   BACKBONE|DICT|INTERRES
    45   22   86 1    
    46   23   24 2    
    47   23   25 1    
    48   25   26 1    
    49   25   27 1    
    50   25   87 1    
    51   26   88 1    
    52   26   89 1    
    53   26   90 1    
    54   27   28 am   BACKBONE|DICT|INTERRES
    55   27   91 1    
    56   28   29 2    
    57   28   30 1    
    58   30   31 1    
    59   30   32 1    
    60   30   92 1    
    61   31   93 1    
    62   31   94 1    
    63   31   95 1    
    64   32   33 am   BACKBONE|DICT|INTERRES
    65   32   96 1    
    66   33   34 2    
    67   33   35 1    
    68   35   36 1    
    69   35   37 1    
    70   35   97 1    
    71   36   98 1    
    72   36   99 1    
    73   36  100 1    
    74   37   38 am   BACKBONE|DICT|INTERRES
    75   37  101 1    
    76   38   39 2    
    77   38   40 1    
    78   40   41 1    
    79   40   42 1    
    80   40  102 1    
    81   41  103 1    
    82   41  104 1    
    83   41  105 1    
    84   42   43 am   BACKBONE|DICT|INTERRES
    85   42  106 1    
    86   43   44 2    
    87   43   45 1    
    88   45   46 1    
    89   45   49 1    
    90   45  107 1    
    91   46   47 1    
    92   46  108 1    
    93   46  109 1    
    94   47   48 1    
    95   48  110 1    
    96   48  111 1    
    97   49   50 am   BACKBONE|DICT|INTERRES
    98   49  112 1    
    99   50   51 2    
   100   50   52 1    
   101   52   53 1    
   102   52   54 1    
   103   52  113 1    
   104   53  114 1    
   105   53  115 1    
   106   53  116 1    
   107   54   55 am   BACKBONE|DICT|INTERRES
   108   54  117 1    
   109   55   56 2    
   110   55   57 1    
   111   57   58 1    
   112   57   59 1    
   113   57  118 1    
   114   58  119 1    
   115   58  120 1    
   116   58  121 1    
   117   59   60 am   BACKBONE|DICT|INTERRES
   118   59  122 1    
   119   60   61 2    
   120   60   62 1    
   121   62   63 1    
   122   62   64 1    
   123   62  123 1    
   124   63  124 1    
   125   63  125 1    
   126   63  126 1    
   127   64   65 am   BACKBONE|DICT|INTERRES
   128   64  127 1    
   129   65   66 2    
@<TRIPOS>SUBSTRUCTURE
     1 UNK         1 GROUP             0       ****    0 ROOT    
