@<TRIPOS>MOLECULE
3R135
127   129    1
SMALL
USER_CHARGES


@<TRIPOS>ATOM
      1 CA        -85.7219   30.5224  -73.5665 C.3       0 UNK        -0.1998 
      2 C         -84.2362   30.7976  -73.7416 C.2       0 UNK         0.4909 
      3 O         -83.8660   31.7709  -74.3983 O.2       0 UNK        -0.5240 
      4 N         -83.3804   29.9440  -73.1646 N.am      1 UNK        -0.4739 
      5 CA        -81.9152   30.0449  -73.2241 C.3       1 UNK         0.0864 
      6 C6        -81.2369   29.3982  -71.9858 C.3       11 UNK        -0.0881 
      7 S7        -81.7776   27.6928  -71.6118 S.3       11 UNK        -0.2682 
      8 C8        -80.6126   26.6832  -72.5762 C.3       11 UNK         0.0289 
      9 C9        -79.2682   26.4811  -71.8928 C.ar      11 UNK        -0.0687 
     10 C10       -79.0410   25.3291  -71.1350 C.ar      11 UNK        -0.0823 
     11 C11       -77.7823   25.0777  -70.5824 C.ar      11 UNK        -0.0830 
     12 C12       -76.7514   26.0024  -70.7683 C.ar      11 UNK        -0.1021 
     13 C13       -76.9632   27.1536  -71.5317 C.ar      11 UNK        -0.0753 
     14 C14       -78.2240   27.3911  -72.0875 C.ar      11 UNK        -0.0933 
     15 C15       -75.8183   28.1207  -71.7830 C.3       11 UNK         0.0166 
     16 S16       -74.6394   27.4273  -72.9811 S.3       11 UNK        -0.2615 
     17 C17       -73.5530   28.8653  -73.2721 C.3       11 UNK        -0.0865 
     18 CA        -73.8157   29.5430  -74.6424 C.3       10 UNK         0.0862 
     19 C         -73.0236   30.8801  -74.7682 C.2       10 UNK         0.5551 
     20 N         -72.1583   31.0683  -75.7580 N.am      10 UNK        -0.7319 
     21 O         -73.2117   31.7777  -73.9504 O.2       10 UNK        -0.5018 
     22 N         -73.6164   28.6047  -75.7577 N.am      10 UNK        -0.4509 
     23 C         -74.1094   28.7639  -76.9915 C.2       10 UNK         0.4899 
     24 O         -74.8682   29.6795  -77.3140 O.2       10 UNK        -0.4839 
     25 CA        -73.6572   27.7272  -78.0390 C.3       9 UNK         0.0222 
     26 CB        -73.9986   28.1415  -79.4861 C.3       9 UNK        -0.1966 
     27 N         -72.2348   27.3833  -77.9146 N.am      9 UNK        -0.4218 
     28 C         -71.1843   28.2151  -77.9973 C.2       9 UNK         0.5020 
     29 O         -71.2788   29.4224  -78.2271 O.2       9 UNK        -0.5274 
     30 CA        -69.7994   27.5800  -77.7524 C.3       8 UNK         0.0270 
     31 CB        -68.6739   28.6268  -77.6019 C.3       8 UNK        -0.1976 
     32 N         -69.7973   26.6426  -76.6196 N.am      8 UNK        -0.4313 
     33 C         -70.1105   26.9179  -75.3435 C.2       8 UNK         0.5041 
     34 O         -70.4129   28.0391  -74.9329 O.2       8 UNK        -0.5577 
     35 CA        -70.1198   25.7137  -74.3801 C.3       7 UNK         0.0284 
     36 CB        -70.6676   26.0677  -72.9814 C.3       7 UNK        -0.1958 
     37 N         -70.8334   24.5403  -74.9064 N.am      7 UNK        -0.4454 
     38 C         -72.0910   24.4975  -75.3754 C.2       7 UNK         0.5089 
     39 O         -72.7922   25.4931  -75.5638 O.2       7 UNK        -0.5125 
     40 CA        -72.6830   23.1117  -75.7046 C.3       6 UNK         0.0408 
     41 CB        -71.7071   21.9270  -75.5186 C.3       6 UNK        -0.1791 
     42 N         -73.9259   22.8904  -74.9578 N.am      6 UNK        -0.4762 
     43 C         -74.0828   22.8815  -73.6244 C.2       6 UNK         0.5007 
     44 O         -73.1459   22.9548  -72.8265 O.2       6 UNK        -0.5032 
     45 CA        -75.5366   22.8086  -73.1032 C.3       5 UNK         0.0783 
     46 C46       -75.5955   22.6738  -71.5575 C.3       11 UNK        -0.0857 
     47 S47       -77.2824   22.3750  -70.9268 S.3       11 UNK        -0.2512 
     48 C48       -77.5368   23.7922  -69.8085 C.3       11 UNK         0.0225 
     49 N         -76.3014   23.9639  -73.5863 N.am      5 UNK        -0.4615 
     50 C         -76.8283   24.0879  -74.8103 C.2       4 UNK         0.5053 
     51 O         -76.7557   23.2168  -75.6809 O.2       4 UNK        -0.5105 
     52 CA        -77.4769   25.4408  -75.1399 C.3       4 UNK         0.0263 
     53 CB        -76.5526   26.2646  -76.0488 C.3       4 UNK        -0.1981 
     54 N         -78.7967   25.3452  -75.7669 N.am      4 UNK        -0.4224 
     55 C         -79.8567   24.6670  -75.3085 C.2       3 UNK         0.4895 
     56 O         -79.8398   23.9490  -74.3079 O.2       3 UNK        -0.5091 
     57 CA        -81.1783   24.8802  -76.0744 C.3       3 UNK         0.0250 
     58 CB        -82.3344   24.0342  -75.5074 C.3       3 UNK        -0.1996 
     59 N         -81.5920   26.2894  -76.0880 N.am      3 UNK        -0.4254 
     60 C         -81.0975   27.2329  -76.9014 C.2       2 UNK         0.5004 
     61 O         -80.1801   27.0284  -77.6976 O.2       2 UNK        -0.5226 
     62 CA        -81.7328   28.6303  -76.8277 C.3       2 UNK         0.0269 
     63 CB        -82.9533   28.7096  -77.7593 C.3       2 UNK        -0.1926 
     64 N         -82.1363   29.0225  -75.4735 N.am      2 UNK        -0.4687 
     65 C         -81.3086   29.5564  -74.5623 C.2       1 UNK         0.5165 
     66 O         -80.0982   29.6850  -74.7508 O.2       1 UNK        -0.5079 
     67 H67       -86.1949   30.3821  -74.5380 H         1 UNK         0.0900 
     68 H68       -86.2032   31.3654  -73.0716 H         1 UNK         0.0900 
     69 H69       -85.9035   29.6297  -72.9683 H         1 UNK         0.0900 
     70 H70       -83.7327   29.1590  -72.6331 H         1 UNK         0.2959 
     71 H71       -81.6644   31.1078  -73.1861 H         1 UNK         0.1079 
     72 H72       -81.4811   29.9983  -71.1079 H         1 UNK         0.0837 
     73 H73       -80.1512   29.4477  -72.0568 H         1 UNK         0.0837 
     74 H74       -81.0851   25.7148  -72.7431 H         1 UNK         0.0685 
     75 H75       -80.4599   27.1117  -73.5648 H         1 UNK         0.0685 
     76 H76       -79.8351   24.6060  -71.0072 H         1 UNK         0.1434 
     77 H77       -75.7730   25.8156  -70.3466 H         1 UNK         0.1329 
     78 H78       -78.3774   28.2621  -72.7091 H         1 UNK         0.1335 
     79 H79       -75.3029   28.3348  -70.8455 H         1 UNK         0.0680 
     80 H80       -76.1974   29.0729  -72.1580 H         1 UNK         0.0680 
     81 H81       -72.5147   28.5368  -73.2120 H         1 UNK         0.1032 
     82 H82       -73.6840   29.5778  -72.4553 H         1 UNK         0.1032 
     83 H83       -74.8685   29.8316  -74.6564 H         1 UNK         0.0461 
     84 H84       -71.9892   30.3458  -76.4472 H         1 UNK         0.3453 
     85 H85       -71.6626   31.9428  -75.8184 H         1 UNK         0.3453 
     86 H86       -73.0126   27.8131  -75.5710 H         1 UNK         0.2984 
     87 H87       -74.2087   26.8122  -77.8204 H         1 UNK         0.0554 
     88 H88       -75.0735   28.2789  -79.6094 H         1 UNK         0.0847 
     89 H89       -73.6865   27.3808  -80.2015 H         1 UNK         0.0847 
     90 H90       -73.5176   29.0803  -79.7627 H         1 UNK         0.0847 
     91 H91       -72.0515   26.4297  -77.6331 H         1 UNK         0.3141 
     92 H92       -69.5783   26.9887  -78.6423 H         1 UNK         0.0743 
     93 H93       -68.5956   29.2474  -78.4954 H         1 UNK         0.0784 
     94 H94       -68.8517   29.2946  -76.7583 H         1 UNK         0.0784 
     95 H95       -67.7051   28.1499  -77.4539 H         1 UNK         0.0784 
     96 H96       -69.5740   25.6827  -76.8457 H         1 UNK         0.3213 
     97 H97       -69.0760   25.4200  -74.2581 H         1 UNK         0.0855 
     98 H98       -70.1383   26.9177  -72.5490 H         1 UNK         0.0814 
     99 H99       -70.5553   25.2317  -72.2911 H         1 UNK         0.0814 
    100 H100      -71.7266   26.3218  -73.0191 H         1 UNK         0.0814 
    101 H101      -70.3474   23.6596  -74.8112 H         1 UNK         0.3105 
    102 H102      -72.9621   23.1449  -76.7586 H         1 UNK         0.0547 
    103 H103      -70.8268   22.0357  -76.1535 H         1 UNK         0.0837 
    104 H104      -71.3663   21.8243  -74.4878 H         1 UNK         0.0837 
    105 H105      -72.1815   20.9865  -75.7990 H         1 UNK         0.0837 
    106 H106      -74.7767   22.8844  -75.5131 H         1 UNK         0.3020 
    107 H107      -75.9738   21.9013  -73.5269 H         1 UNK         0.1245 
    108 H108      -75.1674   23.5558  -71.0789 H         1 UNK         0.0781 
    109 H109      -74.9840   21.8311  -71.2292 H         1 UNK         0.0781 
    110 H110      -76.6807   23.8947  -69.1396 H         1 UNK         0.0836 
    111 H111      -78.3964   23.5855  -69.1691 H         1 UNK         0.0836 
    112 H112      -76.3927   24.7322  -72.9356 H         1 UNK         0.3022 
    113 H113      -77.6062   25.9887  -74.2101 H         1 UNK         0.0747 
    114 H114      -76.9143   27.2867  -76.1637 H         1 UNK         0.0793 
    115 H115      -75.5468   26.3222  -75.6307 H         1 UNK         0.0793 
    116 H116      -76.4658   25.8212  -77.0414 H         1 UNK         0.0793 
    117 H117      -78.9482   25.9193  -76.5904 H         1 UNK         0.3047 
    118 H118      -81.0069   24.5545  -77.1030 H         1 UNK         0.0822 
    119 H119      -83.2401   24.1494  -76.1032 H         1 UNK         0.0807 
    120 H120      -82.5714   24.3094  -74.4788 H         1 UNK         0.0807 
    121 H121      -82.0806   22.9732  -75.5109 H         1 UNK         0.0807 
    122 H122      -82.3266   26.5513  -75.4474 H         1 UNK         0.2946 
    123 H123      -80.9877   29.3425  -77.1912 H         1 UNK         0.1144 
    124 H124      -83.3665   29.7183  -77.7852 H         1 UNK         0.0793 
    125 H125      -83.7473   28.0293  -77.4488 H         1 UNK         0.0793 
    126 H126      -82.6808   28.4470  -78.7827 H         1 UNK         0.0793 
    127 H127      -83.1176   28.9600  -75.2441 H         1 UNK         0.2896 
@<TRIPOS>BOND
     1    1    2 1    
     2    1   67 1    
     3    1   68 1    
     4    1   69 1    
     5    2    3 2    
     6    2    4 am   BACKBONE|DICT|INTERRES
     7    4    5 1    
     8    4   70 1    
     9    5    6 1    
    10    5   65 1    
    11    5   71 1    
    12    6    7 1    
    13    6   72 1    
    14    6   73 1    
    15    7    8 1    
    16    8    9 1    
    17    8   74 1    
    18    8   75 1    
    19    9   10 ar   
    20    9   14 ar   
    21   10   11 ar   
    22   10   76 1    
    23   11   12 ar   
    24   11   48 1    
    25   12   13 ar   
    26   12   77 1    
    27   13   14 ar   
    28   13   15 1    
    29   14   78 1    
    30   15   16 1    
    31   15   79 1    
    32   15   80 1    
    33   16   17 1    
    34   17   18 1    
    35   17   81 1    
    36   17   82 1    
    37   18   19 1    
    38   18   22 1    
    39   18   83 1    
    40   19   20 am   BACKBONE|DICT|INTERRES
    41   19   21 2    
    42   20   84 1    
    43   20   85 1    
    44   22   23 am   BACKBONE|DICT|INTERRES
    45   22   86 1    
    46   23   24 2    
    47   23   25 1    
    48   25   26 1    
    49   25   27 1    
    50   25   87 1    
    51   26   88 1    
    52   26   89 1    
    53   26   90 1    
    54   27   28 am   BACKBONE|DICT|INTERRES
    55   27   91 1    
    56   28   29 2    
    57   28   30 1    
    58   30   31 1    
    59   30   32 1    
    60   30   92 1    
    61   31   93 1    
    62   31   94 1    
    63   31   95 1    
    64   32   33 am   BACKBONE|DICT|INTERRES
    65   32   96 1    
    66   33   34 2    
    67   33   35 1    
    68   35   36 1    
    69   35   37 1    
    70   35   97 1    
    71   36   98 1    
    72   36   99 1    
    73   36  100 1    
    74   37   38 am   BACKBONE|DICT|INTERRES
    75   37  101 1    
    76   38   39 2    
    77   38   40 1    
    78   40   41 1    
    79   40   42 1    
    80   40  102 1    
    81   41  103 1    
    82   41  104 1    
    83   41  105 1    
    84   42   43 am   BACKBONE|DICT|INTERRES
    85   42  106 1    
    86   43   44 2    
    87   43   45 1    
    88   45   46 1    
    89   45   49 1    
    90   45  107 1    
    91   46   47 1    
    92   46  108 1    
    93   46  109 1    
    94   47   48 1    
    95   48  110 1    
    96   48  111 1    
    97   49   50 am   BACKBONE|DICT|INTERRES
    98   49  112 1    
    99   50   51 2    
   100   50   52 1    
   101   52   53 1    
   102   52   54 1    
   103   52  113 1    
   104   53  114 1    
   105   53  115 1    
   106   53  116 1    
   107   54   55 am   BACKBONE|DICT|INTERRES
   108   54  117 1    
   109   55   56 2    
   110   55   57 1    
   111   57   58 1    
   112   57   59 1    
   113   57  118 1    
   114   58  119 1    
   115   58  120 1    
   116   58  121 1    
   117   59   60 am   BACKBONE|DICT|INTERRES
   118   59  122 1    
   119   60   61 2    
   120   60   62 1    
   121   62   63 1    
   122   62   64 1    
   123   62  123 1    
   124   63  124 1    
   125   63  125 1    
   126   63  126 1    
   127   64   65 am   BACKBONE|DICT|INTERRES
   128   64  127 1    
   129   65   66 2    
@<TRIPOS>SUBSTRUCTURE
     1 UNK         1 GROUP             0       ****    0 ROOT    
