@<TRIPOS>MOLECULE
3R135
127   129    1
SMALL
USER_CHARGES


@<TRIPOS>ATOM
      1 CA        -80.0535   29.0801  -79.5210 C.3       0 UNK        -0.1998 
      2 C         -79.6952   28.8168  -78.0669 C.2       0 UNK         0.4909 
      3 O         -78.5679   29.0907  -77.6563 O.2       0 UNK        -0.5240 
      4 N         -80.6402   28.2844  -77.2870 N.am      1 UNK        -0.4739 
      5 CA        -80.4688   27.9210  -75.8825 C.3       1 UNK         0.0864 
      6 C6        -80.9220   29.0672  -74.9408 C.3       11 UNK        -0.0881 
      7 S7        -80.2966   28.8799  -73.2383 S.3       11 UNK        -0.2682 
      8 C8        -78.6241   29.5770  -73.4365 C.3       11 UNK         0.0289 
      9 C9        -77.6901   29.3068  -72.2617 C.ar      11 UNK        -0.0687 
     10 C10       -77.6745   28.0647  -71.6197 C.ar      11 UNK        -0.0823 
     11 C11       -76.7690   27.7994  -70.5910 C.ar      11 UNK        -0.0830 
     12 C12       -75.8771   28.8003  -70.1890 C.ar      11 UNK        -0.1021 
     13 C13       -75.8802   30.0501  -70.8188 C.ar      11 UNK        -0.0753 
     14 C14       -76.7887   30.2939  -71.8538 C.ar      11 UNK        -0.0933 
     15 C15       -74.9220   31.1526  -70.3782 C.3       11 UNK         0.0166 
     16 S16       -73.1589   30.7164  -70.5556 S.3       11 UNK        -0.2615 
     17 C17       -73.0241   30.2689  -72.3234 C.3       11 UNK        -0.0865 
     18 CA        -72.2079   28.9731  -72.5711 C.3       10 UNK         0.0862 
     19 C         -72.8800   27.7176  -71.9409 C.2       10 UNK         0.5551 
     20 N         -73.7380   27.0119  -72.6657 N.am      10 UNK        -0.7319 
     21 O         -72.5954   27.3665  -70.7984 O.2       10 UNK        -0.5018 
     22 N         -71.9305   28.8055  -74.0041 N.am      10 UNK        -0.4509 
     23 C         -71.0393   27.9398  -74.5063 C.2       10 UNK         0.4899 
     24 O         -70.2082   27.3433  -73.8205 O.2       10 UNK        -0.4839 
     25 CA        -71.0873   27.6607  -76.0192 C.3       9 UNK         0.0222 
     26 CB        -71.5687   26.2217  -76.2750 C.3       9 UNK        -0.1966 
     27 N         -71.9756   28.5805  -76.7324 N.am      9 UNK        -0.4218 
     28 C         -71.5817   29.6945  -77.3645 C.2       9 UNK         0.5020 
     29 O         -70.4084   30.0612  -77.4418 O.2       9 UNK        -0.5274 
     30 CA        -72.6763   30.5483  -78.0331 C.3       8 UNK         0.0270 
     31 CB        -72.7578   30.2328  -79.5358 C.3       8 UNK        -0.1976 
     32 N         -74.0033   30.3776  -77.4349 N.am      8 UNK        -0.4313 
     33 C         -74.3463   30.7916  -76.2077 C.2       8 UNK         0.5041 
     34 O         -73.5862   31.3915  -75.4486 O.2       8 UNK        -0.5577 
     35 CA        -75.7602   30.4275  -75.7286 C.3       7 UNK         0.0284 
     36 CB        -76.7680   31.5029  -76.1647 C.3       7 UNK        -0.1958 
     37 N         -76.2162   29.1107  -76.1886 N.am      7 UNK        -0.4454 
     38 C         -75.6272   27.9484  -75.8829 C.2       7 UNK         0.5089 
     39 O         -74.5716   27.8617  -75.2512 O.2       7 UNK        -0.5125 
     40 CA        -76.2868   26.6705  -76.4197 C.3       6 UNK         0.0408 
     41 CB        -75.6290   26.2495  -77.7427 C.3       6 UNK        -0.1791 
     42 N         -76.1582   25.5831  -75.4479 N.am      6 UNK        -0.4762 
     43 C         -76.9323   25.4532  -74.3623 C.2       6 UNK         0.5007 
     44 O         -77.9198   26.1562  -74.1461 O.2       6 UNK        -0.5032 
     45 CA        -76.5876   24.2915  -73.4158 C.3       5 UNK         0.0783 
     46 C46       -77.1004   24.4675  -71.9525 C.3       11 UNK        -0.0857 
     47 S47       -75.8379   25.1853  -70.8461 S.3       11 UNK        -0.2512 
     48 C48       -76.7702   26.4394  -69.9056 C.3       11 UNK         0.0225 
     49 N         -77.0674   23.0557  -74.0372 N.am      5 UNK        -0.4615 
     50 C         -76.5504   21.8437  -73.7894 C.2       4 UNK         0.5053 
     51 O         -75.6020   21.6660  -73.0241 O.2       4 UNK        -0.5105 
     52 CA        -77.1798   20.6225  -74.4881 C.3       4 UNK         0.0263 
     53 CB        -77.2479   19.3975  -73.5560 C.3       4 UNK        -0.1981 
     54 N         -78.5249   20.9100  -74.9877 N.am      4 UNK        -0.4224 
     55 C         -78.9381   20.7343  -76.2495 C.2       3 UNK         0.4895 
     56 O         -78.2402   20.2491  -77.1409 O.2       3 UNK        -0.5091 
     57 CA        -80.3743   21.1846  -76.5881 C.3       3 UNK         0.0250 
     58 CB        -81.3236   19.9750  -76.5983 C.3       3 UNK        -0.1996 
     59 N         -80.9294   22.2238  -75.7080 N.am      3 UNK        -0.4254 
     60 C         -80.3945   23.4373  -75.5165 C.2       2 UNK         0.5004 
     61 O         -79.3188   23.7913  -76.0061 O.2       2 UNK        -0.5226 
     62 CA        -81.1525   24.3799  -74.5694 C.3       2 UNK         0.0269 
     63 CB        -80.8984   23.9866  -73.1050 C.3       2 UNK        -0.1926 
     64 N         -80.6942   25.7529  -74.7732 N.am      2 UNK        -0.4687 
     65 C         -81.2328   26.6082  -75.6472 C.2       1 UNK         0.5165 
     66 O         -82.2794   26.3928  -76.2666 O.2       1 UNK        -0.5079 
     67 H67       -79.3941   28.5130  -80.1773 H         1 UNK         0.0900 
     68 H68       -79.9338   30.1388  -79.7493 H         1 UNK         0.0900 
     69 H69       -81.0820   28.7981  -79.7453 H         1 UNK         0.0900 
     70 H70       -81.5365   28.0158  -77.6743 H         1 UNK         0.2959 
     71 H71       -79.4120   27.7122  -75.7089 H         1 UNK         0.1079 
     72 H72       -80.5699   30.0271  -75.3227 H         1 UNK         0.0837 
     73 H73       -82.0107   29.1431  -74.9136 H         1 UNK         0.0837 
     74 H74       -78.1678   29.1474  -74.3262 H         1 UNK         0.0685 
     75 H75       -78.7168   30.6494  -73.6131 H         1 UNK         0.0685 
     76 H76       -78.3646   27.2954  -71.9315 H         1 UNK         0.1434 
     77 H77       -75.1705   28.6058  -69.3936 H         1 UNK         0.1329 
     78 H78       -76.7895   31.2549  -72.3497 H         1 UNK         0.1335 
     79 H79       -75.1062   32.0714  -70.9372 H         1 UNK         0.0680 
     80 H80       -75.1182   31.3897  -69.3318 H         1 UNK         0.0680 
     81 H81       -72.5471   31.1072  -72.8337 H         1 UNK         0.1032 
     82 H82       -74.0135   30.1777  -72.7727 H         1 UNK         0.1032 
     83 H83       -71.2431   29.0988  -72.0754 H         1 UNK         0.0461 
     84 H84       -74.1986   26.2281  -72.2315 H         1 UNK         0.3453 
     85 H85       -73.9927   27.3103  -73.6038 H         1 UNK         0.3453 
     86 H86       -72.5876   29.2399  -74.6362 H         1 UNK         0.2984 
     87 H87       -70.0694   27.7509  -76.4040 H         1 UNK         0.0554 
     88 H88       -71.5950   25.9939  -77.3407 H         1 UNK         0.0847 
     89 H89       -72.5665   26.0508  -75.8688 H         1 UNK         0.0847 
     90 H90       -70.9007   25.4974  -75.8070 H         1 UNK         0.0847 
     91 H91       -72.9654   28.3791  -76.6696 H         1 UNK         0.3141 
     92 H92       -72.3881   31.5956  -77.9182 H         1 UNK         0.0743 
     93 H93       -73.0583   29.1999  -79.7171 H         1 UNK         0.0784 
     94 H94       -73.4705   30.8851  -80.0410 H         1 UNK         0.0784 
     95 H95       -71.7902   30.3795  -80.0180 H         1 UNK         0.0784 
     96 H96       -74.7003   29.8991  -77.9875 H         1 UNK         0.3213 
     97 H97       -75.7373   30.4004  -74.6377 H         1 UNK         0.0855 
     98 H98       -76.4769   32.4857  -75.7912 H         1 UNK         0.0814 
     99 H99       -77.7673   31.2943  -75.7842 H         1 UNK         0.0814 
    100 H100      -76.8378   31.5725  -77.2510 H         1 UNK         0.0814 
    101 H101      -77.0741   29.0954  -76.7447 H         1 UNK         0.3105 
    102 H102      -77.3455   26.8588  -76.6058 H         1 UNK         0.0547 
    103 H103      -75.7409   27.0279  -78.4986 H         1 UNK         0.0837 
    104 H104      -74.5616   26.0589  -77.6248 H         1 UNK         0.0837 
    105 H105      -76.0894   25.3456  -78.1420 H         1 UNK         0.0837 
    106 H106      -75.3694   24.9646  -75.5670 H         1 UNK         0.3020 
    107 H107      -75.4966   24.2348  -73.3877 H         1 UNK         0.1245 
    108 H108      -77.3512   23.4972  -71.5217 H         1 UNK         0.0781 
    109 H109      -78.0253   25.0404  -71.8988 H         1 UNK         0.0781 
    110 H110      -76.3207   26.5275  -68.9154 H         1 UNK         0.0836 
    111 H111      -77.7935   26.0999  -69.7380 H         1 UNK         0.0836 
    112 H112      -77.7964   23.1695  -74.7361 H         1 UNK         0.3022 
    113 H113      -76.5133   20.3790  -75.3179 H         1 UNK         0.0747 
    114 H114      -77.6758   18.5352  -74.0676 H         1 UNK         0.0793 
    115 H115      -76.2545   19.1052  -73.2129 H         1 UNK         0.0793 
    116 H116      -77.8543   19.5979  -72.6719 H         1 UNK         0.0793 
    117 H117      -79.1743   21.3073  -74.3240 H         1 UNK         0.3047 
    118 H118      -80.3435   21.6015  -77.5971 H         1 UNK         0.0822 
    119 H119      -82.3187   20.2523  -76.9467 H         1 UNK         0.0807 
    120 H120      -81.4244   19.5325  -75.6064 H         1 UNK         0.0807 
    121 H121      -80.9561   19.1947  -77.2667 H         1 UNK         0.0807 
    122 H122      -81.8024   22.0009  -75.2506 H         1 UNK         0.2946 
    123 H123      -82.2227   24.3092  -74.7781 H         1 UNK         0.1144 
    124 H124      -81.3125   23.0023  -72.8833 H         1 UNK         0.0793 
    125 H125      -81.3637   24.6939  -72.4180 H         1 UNK         0.0793 
    126 H126      -79.8341   23.9504  -72.8769 H         1 UNK         0.0793 
    127 H127      -79.7790   25.9765  -74.3869 H         1 UNK         0.2896 
@<TRIPOS>BOND
     1    1    2 1    
     2    1   67 1    
     3    1   68 1    
     4    1   69 1    
     5    2    3 2    
     6    2    4 am   BACKBONE|DICT|INTERRES
     7    4    5 1    
     8    4   70 1    
     9    5    6 1    
    10    5   65 1    
    11    5   71 1    
    12    6    7 1    
    13    6   72 1    
    14    6   73 1    
    15    7    8 1    
    16    8    9 1    
    17    8   74 1    
    18    8   75 1    
    19    9   10 ar   
    20    9   14 ar   
    21   10   11 ar   
    22   10   76 1    
    23   11   12 ar   
    24   11   48 1    
    25   12   13 ar   
    26   12   77 1    
    27   13   14 ar   
    28   13   15 1    
    29   14   78 1    
    30   15   16 1    
    31   15   79 1    
    32   15   80 1    
    33   16   17 1    
    34   17   18 1    
    35   17   81 1    
    36   17   82 1    
    37   18   19 1    
    38   18   22 1    
    39   18   83 1    
    40   19   20 am   BACKBONE|DICT|INTERRES
    41   19   21 2    
    42   20   84 1    
    43   20   85 1    
    44   22   23 am   BACKBONE|DICT|INTERRES
    45   22   86 1    
    46   23   24 2    
    47   23   25 1    
    48   25   26 1    
    49   25   27 1    
    50   25   87 1    
    51   26   88 1    
    52   26   89 1    
    53   26   90 1    
    54   27   28 am   BACKBONE|DICT|INTERRES
    55   27   91 1    
    56   28   29 2    
    57   28   30 1    
    58   30   31 1    
    59   30   32 1    
    60   30   92 1    
    61   31   93 1    
    62   31   94 1    
    63   31   95 1    
    64   32   33 am   BACKBONE|DICT|INTERRES
    65   32   96 1    
    66   33   34 2    
    67   33   35 1    
    68   35   36 1    
    69   35   37 1    
    70   35   97 1    
    71   36   98 1    
    72   36   99 1    
    73   36  100 1    
    74   37   38 am   BACKBONE|DICT|INTERRES
    75   37  101 1    
    76   38   39 2    
    77   38   40 1    
    78   40   41 1    
    79   40   42 1    
    80   40  102 1    
    81   41  103 1    
    82   41  104 1    
    83   41  105 1    
    84   42   43 am   BACKBONE|DICT|INTERRES
    85   42  106 1    
    86   43   44 2    
    87   43   45 1    
    88   45   46 1    
    89   45   49 1    
    90   45  107 1    
    91   46   47 1    
    92   46  108 1    
    93   46  109 1    
    94   47   48 1    
    95   48  110 1    
    96   48  111 1    
    97   49   50 am   BACKBONE|DICT|INTERRES
    98   49  112 1    
    99   50   51 2    
   100   50   52 1    
   101   52   53 1    
   102   52   54 1    
   103   52  113 1    
   104   53  114 1    
   105   53  115 1    
   106   53  116 1    
   107   54   55 am   BACKBONE|DICT|INTERRES
   108   54  117 1    
   109   55   56 2    
   110   55   57 1    
   111   57   58 1    
   112   57   59 1    
   113   57  118 1    
   114   58  119 1    
   115   58  120 1    
   116   58  121 1    
   117   59   60 am   BACKBONE|DICT|INTERRES
   118   59  122 1    
   119   60   61 2    
   120   60   62 1    
   121   62   63 1    
   122   62   64 1    
   123   62  123 1    
   124   63  124 1    
   125   63  125 1    
   126   63  126 1    
   127   64   65 am   BACKBONE|DICT|INTERRES
   128   64  127 1    
   129   65   66 2    
@<TRIPOS>SUBSTRUCTURE
     1 UNK         1 GROUP             0       ****    0 ROOT    
