@<TRIPOS>MOLECULE
3R135
127   129    1
SMALL
USER_CHARGES


@<TRIPOS>ATOM
      1 CA        -81.6073   25.1288  -72.0671 C.3       0 UNK        -0.1998 
      2 C         -81.3048   25.9955  -73.2794 C.2       0 UNK         0.4909 
      3 O         -80.2607   25.8250  -73.9089 O.2       0 UNK        -0.5240 
      4 N         -82.2289   26.9082  -73.6125 N.am      1 UNK        -0.4739 
      5 CA        -82.1015   27.9776  -74.6198 C.3       1 UNK         0.0864 
      6 C6        -81.1314   29.1035  -74.1694 C.3       11 UNK        -0.0881 
      7 S7        -81.6647   29.8506  -72.5914 S.3       11 UNK        -0.2682 
      8 C8        -80.2102   30.8519  -72.1458 C.3       11 UNK         0.0289 
      9 C9        -78.9549   30.0222  -71.8976 C.ar      11 UNK        -0.0687 
     10 C10       -78.9727   28.9380  -71.0132 C.ar      11 UNK        -0.0823 
     11 C11       -77.8135   28.1959  -70.7637 C.ar      11 UNK        -0.0830 
     12 C12       -76.6221   28.5676  -71.3985 C.ar      11 UNK        -0.1021 
     13 C13       -76.5885   29.6457  -72.2883 C.ar      11 UNK        -0.0753 
     14 C14       -77.7599   30.3662  -72.5347 C.ar      11 UNK        -0.0933 
     15 C15       -75.2967   30.0298  -72.9979 C.3       11 UNK         0.0166 
     16 S16       -73.9997   30.5644  -71.8364 S.3       11 UNK        -0.2615 
     17 C17       -72.8807   29.1194  -71.8664 C.3       11 UNK        -0.0865 
     18 CA        -71.6820   29.2832  -72.8432 C.3       10 UNK         0.0862 
     19 C         -70.6532   28.1348  -72.6505 C.2       10 UNK         0.5551 
     20 N         -70.4565   27.2256  -73.5968 N.am      10 UNK        -0.7319 
     21 O         -69.9965   28.0789  -71.6135 O.2       10 UNK        -0.5018 
     22 N         -72.1114   29.4666  -74.2426 N.am      10 UNK        -0.4509 
     23 C         -72.1368   30.6451  -74.8835 C.2       10 UNK         0.4899 
     24 O         -71.7818   31.7114  -74.3770 O.2       10 UNK        -0.4839 
     25 CA        -72.6560   30.6336  -76.3367 C.3       9 UNK         0.0222 
     26 CB        -72.4224   31.9670  -77.0791 C.3       9 UNK        -0.1966 
     27 N         -72.1374   29.5053  -77.1137 N.am      9 UNK        -0.4218 
     28 C         -70.8506   29.2013  -77.3525 C.2       9 UNK         0.5020 
     29 O         -69.9069   29.9321  -77.0463 O.2       9 UNK        -0.5274 
     30 CA        -70.5589   27.8503  -78.0458 C.3       8 UNK         0.0270 
     31 CB        -69.2945   27.1725  -77.4752 C.3       8 UNK        -0.1976 
     32 N         -71.6848   26.9022  -78.0501 N.am      8 UNK        -0.4313 
     33 C         -72.3407   26.4177  -76.9861 C.2       8 UNK         0.5041 
     34 O         -72.0790   26.7150  -75.8171 O.2       8 UNK        -0.5577 
     35 CA        -73.5184   25.4783  -77.2905 C.3       7 UNK         0.0284 
     36 CB        -73.1040   24.0150  -77.0762 C.3       7 UNK        -0.1958 
     37 N         -74.6931   25.7835  -76.4698 N.am      7 UNK        -0.4454 
     38 C         -75.3348   26.9623  -76.4441 C.2       7 UNK         0.5089 
     39 O         -75.0067   27.9292  -77.1356 O.2       7 UNK        -0.5125 
     40 CA        -76.5569   27.0970  -75.5149 C.3       6 UNK         0.0408 
     41 CB        -77.8443   27.2699  -76.3343 C.3       6 UNK        -0.1791 
     42 N         -76.7370   25.9774  -74.5885 N.am      6 UNK        -0.4762 
     43 C         -75.9859   25.7532  -73.4998 C.2       6 UNK         0.5007 
     44 O         -75.0080   26.4337  -73.1951 O.2       6 UNK        -0.5032 
     45 CA        -76.3639   24.5327  -72.6329 C.3       5 UNK         0.0783 
     46 C46       -77.4407   24.8931  -71.5762 C.3       11 UNK        -0.0857 
     47 S47       -76.7159   25.6635  -70.0910 S.3       11 UNK        -0.2512 
     48 C48       -77.8730   27.0399  -69.7642 C.3       11 UNK         0.0225 
     49 N         -76.7748   23.3854  -73.4487 N.am      5 UNK        -0.4615 
     50 C         -75.9856   22.7480  -74.3255 C.2       4 UNK         0.5053 
     51 O         -74.7897   22.9976  -74.4636 O.2       4 UNK        -0.5105 
     52 CA        -76.6283   21.6703  -75.2213 C.3       4 UNK         0.0263 
     53 CB        -76.2340   20.2662  -74.7353 C.3       4 UNK        -0.1981 
     54 N         -78.0906   21.7483  -75.3287 N.am      4 UNK        -0.4224 
     55 C         -78.7817   22.7930  -75.8065 C.2       3 UNK         0.4895 
     56 O         -78.2521   23.8286  -76.2162 O.2       3 UNK        -0.5091 
     57 CA        -80.3124   22.6590  -75.7780 C.3       3 UNK         0.0250 
     58 CB        -80.8172   22.3040  -74.3661 C.3       3 UNK        -0.1996 
     59 N         -80.9328   23.9181  -76.1891 N.am      3 UNK        -0.4254 
     60 C         -81.5047   24.1455  -77.3792 C.2       2 UNK         0.5004 
     61 O         -81.6065   23.2892  -78.2598 O.2       2 UNK        -0.5226 
     62 CA        -82.0779   25.5536  -77.6275 C.3       2 UNK         0.0269 
     63 CB        -83.3945   25.5100  -78.4263 C.3       2 UNK        -0.1926 
     64 N         -82.3103   26.2648  -76.3675 N.am      2 UNK        -0.4687 
     65 C         -81.8016   27.4610  -76.0475 C.2       1 UNK         0.5165 
     66 O         -81.1328   28.1431  -76.8259 O.2       1 UNK        -0.5079 
     67 H67       -80.6837   24.8356  -71.5690 H         1 UNK         0.0900 
     68 H68       -82.1377   24.2263  -72.3679 H         1 UNK         0.0900 
     69 H69       -82.2218   25.6626  -71.3423 H         1 UNK         0.0900 
     70 H70       -83.0728   26.9584  -73.0586 H         1 UNK         0.2959 
     71 H71       -83.0932   28.4260  -74.6999 H         1 UNK         0.1079 
     72 H72       -81.0801   29.9014  -74.9126 H         1 UNK         0.0837 
     73 H73       -80.1188   28.7098  -74.0646 H         1 UNK         0.0837 
     74 H74       -80.4387   31.4161  -71.2408 H         1 UNK         0.0685 
     75 H75       -80.0421   31.5883  -72.9332 H         1 UNK         0.0685 
     76 H76       -79.8957   28.6775  -70.5133 H         1 UNK         0.1434 
     77 H77       -75.7111   28.0209  -71.2022 H         1 UNK         0.1329 
     78 H78       -77.7391   31.2042  -73.2178 H         1 UNK         0.1335 
     79 H79       -75.4738   30.8433  -73.7029 H         1 UNK         0.0680 
     80 H80       -74.9454   29.1896  -73.5963 H         1 UNK         0.0680 
     81 H81       -73.4424   28.2147  -72.1009 H         1 UNK         0.1032 
     82 H82       -72.5176   28.9813  -70.8462 H         1 UNK         0.1032 
     83 H83       -71.1381   30.1761  -72.5295 H         1 UNK         0.0461 
     84 H84       -71.0353   27.1758  -74.4335 H         1 UNK         0.3453 
     85 H85       -69.7720   26.5056  -73.4338 H         1 UNK         0.3453 
     86 H86       -72.3605   28.6225  -74.7449 H         1 UNK         0.2984 
     87 H87       -73.7343   30.4815  -76.2684 H         1 UNK         0.0554 
     88 H88       -72.8223   31.9327  -78.0924 H         1 UNK         0.0847 
     89 H89       -71.3626   32.2149  -77.1446 H         1 UNK         0.0847 
     90 H90       -72.9170   32.7920  -76.5650 H         1 UNK         0.0847 
     91 H91       -72.8351   28.8260  -77.3923 H         1 UNK         0.3141 
     92 H92       -70.3613   28.0906  -79.0915 H         1 UNK         0.0743 
     93 H93       -69.3959   26.9601  -76.4105 H         1 UNK         0.0784 
     94 H94       -69.0828   26.2330  -77.9855 H         1 UNK         0.0784 
     95 H95       -68.4168   27.8085  -77.5965 H         1 UNK         0.0784 
     96 H96       -71.9963   26.6140  -78.9684 H         1 UNK         0.3213 
     97 H97       -73.8149   25.6043  -78.3339 H         1 UNK         0.0855 
     98 H98       -72.7756   23.8389  -76.0509 H         1 UNK         0.0814 
     99 H99       -72.2764   23.7429  -77.7325 H         1 UNK         0.0814 
    100 H100      -73.9255   23.3305  -77.2882 H         1 UNK         0.0814 
    101 H101      -74.9959   25.0670  -75.8247 H         1 UNK         0.3105 
    102 H102      -76.4188   28.0033  -74.9248 H         1 UNK         0.0547 
    103 H103      -77.7876   28.1492  -76.9771 H         1 UNK         0.0837 
    104 H104      -78.0367   26.4088  -76.9749 H         1 UNK         0.0837 
    105 H105      -78.7082   27.4014  -75.6836 H         1 UNK         0.0837 
    106 H106      -77.4865   25.3313  -74.8110 H         1 UNK         0.3020 
    107 H107      -75.4548   24.2232  -72.1112 H         1 UNK         0.1245 
    108 H108      -77.9539   23.9925  -71.2355 H         1 UNK         0.0781 
    109 H109      -78.2166   25.5341  -72.0006 H         1 UNK         0.0781 
    110 H110      -77.6564   27.4395  -68.7728 H         1 UNK         0.0836 
    111 H111      -78.8844   26.6329  -69.7157 H         1 UNK         0.0836 
    112 H112      -77.7457   23.1178  -73.3981 H         1 UNK         0.3022 
    113 H113      -76.2214   21.8110  -76.2249 H         1 UNK         0.0747 
    114 H114      -76.5917   19.4938  -75.4165 H         1 UNK         0.0793 
    115 H115      -75.1493   20.1633  -74.6756 H         1 UNK         0.0793 
    116 H116      -76.6359   20.0544  -73.7436 H         1 UNK         0.0793 
    117 H117      -78.6032   20.9374  -75.0127 H         1 UNK         0.3047 
    118 H118      -80.5920   21.8544  -76.4613 H         1 UNK         0.0822 
    119 H119      -80.5396   21.2875  -74.0860 H         1 UNK         0.0807 
    120 H120      -81.9044   22.3604  -74.3077 H         1 UNK         0.0807 
    121 H121      -80.4057   22.9738  -73.6108 H         1 UNK         0.0807 
    122 H122      -80.7847   24.7027  -75.5619 H         1 UNK         0.2946 
    123 H123      -81.3308   26.0777  -78.2279 H         1 UNK         0.1144 
    124 H124      -83.2504   25.0408  -79.4005 H         1 UNK         0.0793 
    125 H125      -83.7795   26.5135  -78.6084 H         1 UNK         0.0793 
    126 H126      -84.1653   24.9450  -77.9009 H         1 UNK         0.0793 
    127 H127      -82.8422   25.7704  -75.6641 H         1 UNK         0.2896 
@<TRIPOS>BOND
     1    1    2 1    
     2    1   67 1    
     3    1   68 1    
     4    1   69 1    
     5    2    3 2    
     6    2    4 am   BACKBONE|DICT|INTERRES
     7    4    5 1    
     8    4   70 1    
     9    5    6 1    
    10    5   65 1    
    11    5   71 1    
    12    6    7 1    
    13    6   72 1    
    14    6   73 1    
    15    7    8 1    
    16    8    9 1    
    17    8   74 1    
    18    8   75 1    
    19    9   10 ar   
    20    9   14 ar   
    21   10   11 ar   
    22   10   76 1    
    23   11   12 ar   
    24   11   48 1    
    25   12   13 ar   
    26   12   77 1    
    27   13   14 ar   
    28   13   15 1    
    29   14   78 1    
    30   15   16 1    
    31   15   79 1    
    32   15   80 1    
    33   16   17 1    
    34   17   18 1    
    35   17   81 1    
    36   17   82 1    
    37   18   19 1    
    38   18   22 1    
    39   18   83 1    
    40   19   20 am   BACKBONE|DICT|INTERRES
    41   19   21 2    
    42   20   84 1    
    43   20   85 1    
    44   22   23 am   BACKBONE|DICT|INTERRES
    45   22   86 1    
    46   23   24 2    
    47   23   25 1    
    48   25   26 1    
    49   25   27 1    
    50   25   87 1    
    51   26   88 1    
    52   26   89 1    
    53   26   90 1    
    54   27   28 am   BACKBONE|DICT|INTERRES
    55   27   91 1    
    56   28   29 2    
    57   28   30 1    
    58   30   31 1    
    59   30   32 1    
    60   30   92 1    
    61   31   93 1    
    62   31   94 1    
    63   31   95 1    
    64   32   33 am   BACKBONE|DICT|INTERRES
    65   32   96 1    
    66   33   34 2    
    67   33   35 1    
    68   35   36 1    
    69   35   37 1    
    70   35   97 1    
    71   36   98 1    
    72   36   99 1    
    73   36  100 1    
    74   37   38 am   BACKBONE|DICT|INTERRES
    75   37  101 1    
    76   38   39 2    
    77   38   40 1    
    78   40   41 1    
    79   40   42 1    
    80   40  102 1    
    81   41  103 1    
    82   41  104 1    
    83   41  105 1    
    84   42   43 am   BACKBONE|DICT|INTERRES
    85   42  106 1    
    86   43   44 2    
    87   43   45 1    
    88   45   46 1    
    89   45   49 1    
    90   45  107 1    
    91   46   47 1    
    92   46  108 1    
    93   46  109 1    
    94   47   48 1    
    95   48  110 1    
    96   48  111 1    
    97   49   50 am   BACKBONE|DICT|INTERRES
    98   49  112 1    
    99   50   51 2    
   100   50   52 1    
   101   52   53 1    
   102   52   54 1    
   103   52  113 1    
   104   53  114 1    
   105   53  115 1    
   106   53  116 1    
   107   54   55 am   BACKBONE|DICT|INTERRES
   108   54  117 1    
   109   55   56 2    
   110   55   57 1    
   111   57   58 1    
   112   57   59 1    
   113   57  118 1    
   114   58  119 1    
   115   58  120 1    
   116   58  121 1    
   117   59   60 am   BACKBONE|DICT|INTERRES
   118   59  122 1    
   119   60   61 2    
   120   60   62 1    
   121   62   63 1    
   122   62   64 1    
   123   62  123 1    
   124   63  124 1    
   125   63  125 1    
   126   63  126 1    
   127   64   65 am   BACKBONE|DICT|INTERRES
   128   64  127 1    
   129   65   66 2    
@<TRIPOS>SUBSTRUCTURE
     1 UNK         1 GROUP             0       ****    0 ROOT    
