@<TRIPOS>MOLECULE
3R135
127   129    1
SMALL
USER_CHARGES


@<TRIPOS>ATOM
      1 CA        -77.3371   25.3036  -72.0125 C.3       0 UNK        -0.1998 
      2 C         -78.8237   25.0889  -72.2513 C.2       0 UNK         0.4909 
      3 O         -79.2061   24.2971  -73.1172 O.2       0 UNK        -0.5240 
      4 N         -79.6643   25.7933  -71.4818 N.am      1 UNK        -0.4739 
      5 CA        -81.1292   25.7138  -71.4671 C.3       1 UNK         0.0864 
      6 C6        -81.7107   26.1573  -70.0915 C.3       11 UNK        -0.0881 
      7 S7        -81.6876   27.9384  -69.6605 S.3       11 UNK        -0.2682 
      8 C8        -79.9756   28.2465  -69.1026 C.3       11 UNK         0.0289 
      9 C9        -78.9795   28.5585  -70.2218 C.ar      11 UNK        -0.0687 
     10 C10       -79.3833   29.0812  -71.4583 C.ar      11 UNK        -0.0823 
     11 C11       -78.4552   29.3414  -72.4686 C.ar      11 UNK        -0.0830 
     12 C12       -77.1023   29.0925  -72.2200 C.ar      11 UNK        -0.1021 
     13 C13       -76.6659   28.6057  -70.9833 C.ar      11 UNK        -0.0753 
     14 C14       -77.6173   28.3401  -69.9935 C.ar      11 UNK        -0.0933 
     15 C15       -75.1892   28.3566  -70.6608 C.3       11 UNK         0.0166 
     16 S16       -74.0180   28.4599  -72.0626 S.3       11 UNK        -0.2615 
     17 C17       -73.7712   30.2623  -72.2683 C.3       11 UNK        -0.0865 
     18 CA        -73.9997   30.7602  -73.7282 C.3       10 UNK         0.0862 
     19 C         -73.8955   32.3102  -73.8659 C.2       10 UNK         0.5551 
     20 N         -73.5276   32.8423  -75.0252 N.am      10 UNK        -0.7319 
     21 O         -74.1807   33.0450  -72.9232 O.2       10 UNK        -0.5018 
     22 N         -73.2369   29.9863  -74.7233 N.am      10 UNK        -0.4509 
     23 C         -71.9091   29.9874  -74.8908 C.2       10 UNK         0.4899 
     24 O         -71.1254   30.6841  -74.2431 O.2       10 UNK        -0.4839 
     25 CA        -71.3892   29.0256  -75.9728 C.3       9 UNK         0.0222 
     26 CB        -69.8881   29.2060  -76.2848 C.3       9 UNK        -0.1966 
     27 N         -71.7039   27.6309  -75.6463 N.am      9 UNK        -0.4218 
     28 C         -71.2642   26.9059  -74.6048 C.2       9 UNK         0.5020 
     29 O         -70.4661   27.3175  -73.7616 O.2       9 UNK        -0.5274 
     30 CA        -71.7874   25.4616  -74.4793 C.3       8 UNK         0.0270 
     31 CB        -72.7360   25.3186  -73.2782 C.3       8 UNK        -0.1976 
     32 N         -72.4756   24.9844  -75.6804 N.am      8 UNK        -0.4313 
     33 C         -71.8663   24.5636  -76.7961 C.2       8 UNK         0.5041 
     34 O         -70.6439   24.4993  -76.9299 O.2       8 UNK        -0.5577 
     35 CA        -72.7792   24.1658  -77.9658 C.3       7 UNK         0.0284 
     36 CB        -73.3813   22.7689  -77.7383 C.3       7 UNK        -0.1958 
     37 N         -73.8529   25.1371  -78.1923 N.am      7 UNK        -0.4454 
     38 C         -73.6801   26.3567  -78.7216 C.2       7 UNK         0.5089 
     39 O         -72.5873   26.8087  -79.0618 O.2       7 UNK        -0.5125 
     40 CA        -74.9404   27.2216  -78.9013 C.3       6 UNK         0.0408 
     41 CB        -75.5953   26.9408  -80.2628 C.3       6 UNK        -0.1791 
     42 N         -75.9259   27.0217  -77.8363 N.am      6 UNK        -0.4762 
     43 C         -75.7776   27.4744  -76.5828 C.2       6 UNK         0.5007 
     44 O         -74.8031   28.1269  -76.2050 O.2       6 UNK        -0.5032 
     45 CA        -76.8750   27.0781  -75.5712 C.3       5 UNK         0.0783 
     46 C46       -78.1287   27.9825  -75.6695 C.3       11 UNK        -0.0857 
     47 S47       -77.8396   29.7269  -75.2225 S.3       11 UNK        -0.2512 
     48 C48       -78.9488   29.9453  -73.7851 C.3       11 UNK         0.0225 
     49 N         -77.2541   25.6632  -75.6903 N.am      5 UNK        -0.4615 
     50 C         -76.4271   24.6175  -75.5443 C.2       4 UNK         0.5053 
     51 O         -75.2265   24.7379  -75.3108 O.2       4 UNK        -0.5105 
     52 CA        -77.0067   23.2029  -75.7105 C.3       4 UNK         0.0263 
     53 CB        -76.6341   22.2904  -74.5289 C.3       4 UNK        -0.1981 
     54 N         -78.4622   23.2093  -75.8718 N.am      4 UNK        -0.4224 
     55 C         -79.0928   23.0036  -77.0362 C.2       3 UNK         0.4895 
     56 O         -78.5155   22.7859  -78.1019 O.2       3 UNK        -0.5091 
     57 CA        -80.6291   23.0555  -77.0206 C.3       3 UNK         0.0250 
     58 CB        -81.2084   21.6742  -76.6742 C.3       3 UNK        -0.1996 
     59 N         -81.1894   24.0586  -76.1111 N.am      3 UNK        -0.4254 
     60 C         -81.0377   25.3850  -76.2396 C.2       2 UNK         0.5004 
     61 O         -80.3164   25.9196  -77.0804 O.2       2 UNK        -0.5226 
     62 CA        -81.7942   26.2490  -75.2282 C.3       2 UNK         0.0269 
     63 CB        -83.3163   26.1695  -75.4715 C.3       2 UNK        -0.1926 
     64 N         -81.4262   25.8087  -73.8853 N.am      2 UNK        -0.4687 
     65 C         -81.7698   26.3636  -72.7202 C.2       1 UNK         0.5165 
     66 O         -82.5247   27.3317  -72.6292 O.2       1 UNK        -0.5079 
     67 H67       -76.7743   24.3946  -72.2160 H         1 UNK         0.0900 
     68 H68       -76.9580   26.0913  -72.6590 H         1 UNK         0.0900 
     69 H69       -77.1398   25.5868  -70.9792 H         1 UNK         0.0900 
     70 H70       -79.2788   26.4903  -70.8592 H         1 UNK         0.2959 
     71 H71       -81.3740   24.6521  -71.5516 H         1 UNK         0.1079 
     72 H72       -82.7548   25.8435  -70.0410 H         1 UNK         0.0837 
     73 H73       -81.2158   25.6054  -69.2908 H         1 UNK         0.0837 
     74 H74       -79.9909   29.0987  -68.4221 H         1 UNK         0.0685 
     75 H75       -79.6350   27.3916  -68.5162 H         1 UNK         0.0685 
     76 H76       -80.4276   29.2893  -71.6456 H         1 UNK         0.1434 
     77 H77       -76.3856   29.2901  -72.9944 H         1 UNK         0.1329 
     78 H78       -77.2919   27.9608  -69.0338 H         1 UNK         0.1335 
     79 H79       -75.0963   27.3552  -70.2377 H         1 UNK         0.0680 
     80 H80       -74.8713   29.0481  -69.8793 H         1 UNK         0.0680 
     81 H81       -74.4409   30.7868  -71.5845 H         1 UNK         0.1032 
     82 H82       -72.7587   30.5062  -71.9429 H         1 UNK         0.1032 
     83 H83       -75.0377   30.5662  -73.9858 H         1 UNK         0.0461 
     84 H84       -73.4701   33.8444  -75.1148 H         1 UNK         0.3453 
     85 H85       -73.3008   32.2492  -75.8070 H         1 UNK         0.3453 
     86 H86       -73.7928   29.3537  -75.2961 H         1 UNK         0.2984 
     87 H87       -71.9402   29.2543  -76.8865 H         1 UNK         0.0554 
     88 H88       -69.6819   30.2231  -76.6200 H         1 UNK         0.0847 
     89 H89       -69.5649   28.5309  -77.0772 H         1 UNK         0.0847 
     90 H90       -69.2620   29.0218  -75.4113 H         1 UNK         0.0847 
     91 H91       -72.3881   27.1932  -76.2475 H         1 UNK         0.3141 
     92 H92       -70.9205   24.8221  -74.3002 H         1 UNK         0.0743 
     93 H93       -72.2683   25.6755  -72.3597 H         1 UNK         0.0784 
     94 H94       -73.6525   25.8908  -73.4232 H         1 UNK         0.0784 
     95 H95       -73.0178   24.2779  -73.1176 H         1 UNK         0.0784 
     96 H96       -73.4952   24.9590  -75.6335 H         1 UNK         0.3213 
     97 H97       -72.1645   24.1253  -78.8680 H         1 UNK         0.0855 
     98 H98       -73.9980   22.7309  -76.8399 H         1 UNK         0.0814 
     99 H99       -72.5940   22.0230  -77.6209 H         1 UNK         0.0814 
    100 H100      -73.9965   22.4579  -78.5828 H         1 UNK         0.0814 
    101 H101      -74.7828   24.8674  -77.9103 H         1 UNK         0.3105 
    102 H102      -74.6287   28.2685  -78.8869 H         1 UNK         0.0547 
    103 H103      -76.4446   27.6013  -80.4385 H         1 UNK         0.0837 
    104 H104      -74.8871   27.1044  -81.0764 H         1 UNK         0.0837 
    105 H105      -75.9477   25.9115  -80.3405 H         1 UNK         0.0837 
    106 H106      -76.7557   26.4931  -78.0658 H         1 UNK         0.3020 
    107 H107      -76.4357   27.2107  -74.5811 H         1 UNK         0.1245 
    108 H108      -78.9084   27.5874  -75.0167 H         1 UNK         0.0781 
    109 H109      -78.5453   27.9556  -76.6780 H         1 UNK         0.0781 
    110 H110      -79.9328   29.5453  -74.0362 H         1 UNK         0.0836 
    111 H111      -79.0877   31.0158  -73.6290 H         1 UNK         0.0836 
    112 H112      -78.2171   25.4774  -75.9330 H         1 UNK         0.3022 
    113 H113      -76.5289   22.7872  -76.5996 H         1 UNK         0.0747 
    114 H114      -76.9168   21.2573  -74.7314 H         1 UNK         0.0793 
    115 H115      -75.5594   22.2970  -74.3411 H         1 UNK         0.0793 
    116 H116      -77.1317   22.5913  -73.6083 H         1 UNK         0.0793 
    117 H117      -79.0017   23.3999  -75.0334 H         1 UNK         0.3047 
    118 H118      -80.9531   23.3147  -78.0310 H         1 UNK         0.0822 
    119 H119      -80.8250   20.9091  -77.3510 H         1 UNK         0.0807 
    120 H120      -82.2950   21.6653  -76.7624 H         1 UNK         0.0807 
    121 H121      -80.9502   21.3699  -75.6590 H         1 UNK         0.0807 
    122 H122      -81.7978   23.7155  -75.3814 H         1 UNK         0.2946 
    123 H123      -81.4686   27.2837  -75.3552 H         1 UNK         0.1144 
    124 H124      -83.8587   26.8955  -74.8664 H         1 UNK         0.0793 
    125 H125      -83.7160   25.1813  -75.2420 H         1 UNK         0.0793 
    126 H126      -83.5564   26.3859  -76.5135 H         1 UNK         0.0793 
    127 H127      -80.7223   25.0741  -73.8359 H         1 UNK         0.2896 
@<TRIPOS>BOND
     1    1    2 1    
     2    1   67 1    
     3    1   68 1    
     4    1   69 1    
     5    2    3 2    
     6    2    4 am   BACKBONE|DICT|INTERRES
     7    4    5 1    
     8    4   70 1    
     9    5    6 1    
    10    5   65 1    
    11    5   71 1    
    12    6    7 1    
    13    6   72 1    
    14    6   73 1    
    15    7    8 1    
    16    8    9 1    
    17    8   74 1    
    18    8   75 1    
    19    9   10 ar   
    20    9   14 ar   
    21   10   11 ar   
    22   10   76 1    
    23   11   12 ar   
    24   11   48 1    
    25   12   13 ar   
    26   12   77 1    
    27   13   14 ar   
    28   13   15 1    
    29   14   78 1    
    30   15   16 1    
    31   15   79 1    
    32   15   80 1    
    33   16   17 1    
    34   17   18 1    
    35   17   81 1    
    36   17   82 1    
    37   18   19 1    
    38   18   22 1    
    39   18   83 1    
    40   19   20 am   BACKBONE|DICT|INTERRES
    41   19   21 2    
    42   20   84 1    
    43   20   85 1    
    44   22   23 am   BACKBONE|DICT|INTERRES
    45   22   86 1    
    46   23   24 2    
    47   23   25 1    
    48   25   26 1    
    49   25   27 1    
    50   25   87 1    
    51   26   88 1    
    52   26   89 1    
    53   26   90 1    
    54   27   28 am   BACKBONE|DICT|INTERRES
    55   27   91 1    
    56   28   29 2    
    57   28   30 1    
    58   30   31 1    
    59   30   32 1    
    60   30   92 1    
    61   31   93 1    
    62   31   94 1    
    63   31   95 1    
    64   32   33 am   BACKBONE|DICT|INTERRES
    65   32   96 1    
    66   33   34 2    
    67   33   35 1    
    68   35   36 1    
    69   35   37 1    
    70   35   97 1    
    71   36   98 1    
    72   36   99 1    
    73   36  100 1    
    74   37   38 am   BACKBONE|DICT|INTERRES
    75   37  101 1    
    76   38   39 2    
    77   38   40 1    
    78   40   41 1    
    79   40   42 1    
    80   40  102 1    
    81   41  103 1    
    82   41  104 1    
    83   41  105 1    
    84   42   43 am   BACKBONE|DICT|INTERRES
    85   42  106 1    
    86   43   44 2    
    87   43   45 1    
    88   45   46 1    
    89   45   49 1    
    90   45  107 1    
    91   46   47 1    
    92   46  108 1    
    93   46  109 1    
    94   47   48 1    
    95   48  110 1    
    96   48  111 1    
    97   49   50 am   BACKBONE|DICT|INTERRES
    98   49  112 1    
    99   50   51 2    
   100   50   52 1    
   101   52   53 1    
   102   52   54 1    
   103   52  113 1    
   104   53  114 1    
   105   53  115 1    
   106   53  116 1    
   107   54   55 am   BACKBONE|DICT|INTERRES
   108   54  117 1    
   109   55   56 2    
   110   55   57 1    
   111   57   58 1    
   112   57   59 1    
   113   57  118 1    
   114   58  119 1    
   115   58  120 1    
   116   58  121 1    
   117   59   60 am   BACKBONE|DICT|INTERRES
   118   59  122 1    
   119   60   61 2    
   120   60   62 1    
   121   62   63 1    
   122   62   64 1    
   123   62  123 1    
   124   63  124 1    
   125   63  125 1    
   126   63  126 1    
   127   64   65 am   BACKBONE|DICT|INTERRES
   128   64  127 1    
   129   65   66 2    
@<TRIPOS>SUBSTRUCTURE
     1 UNK         1 GROUP             0       ****    0 ROOT    
