@<TRIPOS>MOLECULE
3R135
127   129    1
SMALL
USER_CHARGES


@<TRIPOS>ATOM
      1 CA        -82.4239   30.3492  -75.4206 C.3       0 UNK        -0.1998 
      2 C         -81.2058   29.7641  -74.7229 C.2       0 UNK         0.4909 
      3 O         -80.1113   30.3192  -74.8282 O.2       0 UNK        -0.5240 
      4 N         -81.3789   28.6378  -74.0193 N.am      1 UNK        -0.4739 
      5 CA        -80.3355   27.9309  -73.2642 C.3       1 UNK         0.0864 
      6 C6        -80.9423   27.1077  -72.0978 C.3       11 UNK        -0.0881 
      7 S7        -81.5081   28.2262  -70.7668 S.3       11 UNK        -0.2682 
      8 C8        -80.2718   27.9801  -69.4414 C.3       11 UNK         0.0289 
      9 C9        -78.8382   27.8853  -69.9535 C.ar      11 UNK        -0.0687 
     10 C10       -78.1393   26.6818  -69.8383 C.ar      11 UNK        -0.0823 
     11 C11       -76.8435   26.5558  -70.3432 C.ar      11 UNK        -0.0830 
     12 C12       -76.2422   27.6584  -70.9640 C.ar      11 UNK        -0.1021 
     13 C13       -76.9294   28.8741  -71.0934 C.ar      11 UNK        -0.0753 
     14 C14       -78.2206   28.9800  -70.5642 C.ar      11 UNK        -0.0933 
     15 C15       -76.3573   30.0852  -71.8344 C.3       11 UNK         0.0166 
     16 S16       -74.5917   29.9944  -72.3009 S.3       11 UNK        -0.2615 
     17 C17       -74.4529   31.5014  -73.3227 C.3       11 UNK        -0.0865 
     18 CA        -74.3890   31.1762  -74.8454 C.3       10 UNK         0.0862 
     19 C         -74.7592   32.3918  -75.7526 C.2       10 UNK         0.5551 
     20 N         -74.2474   32.4793  -76.9748 N.am      10 UNK        -0.7319 
     21 O         -75.5448   33.2525  -75.3634 O.2       10 UNK        -0.5018 
     22 N         -73.1476   30.4790  -75.2352 N.am      10 UNK        -0.4509 
     23 C         -71.9074   30.9957  -75.2109 C.2       10 UNK         0.4899 
     24 O         -71.6525   32.1330  -74.8111 O.2       10 UNK        -0.4839 
     25 CA        -70.7592   30.1207  -75.7639 C.3       9 UNK         0.0222 
     26 CB        -69.3849   30.4790  -75.1571 C.3       9 UNK        -0.1966 
     27 N         -71.0205   28.6793  -75.6778 N.am      9 UNK        -0.4218 
     28 C         -71.2028   27.9501  -74.5666 C.2       9 UNK         0.5020 
     29 O         -71.0269   28.3843  -73.4268 O.2       9 UNK        -0.5274 
     30 CA        -71.6692   26.4898  -74.7609 C.3       8 UNK         0.0270 
     31 CB        -72.5476   26.0156  -73.5894 C.3       8 UNK        -0.1976 
     32 N         -72.3559   26.2075  -76.0327 N.am      8 UNK        -0.4313 
     33 C         -73.4226   26.8336  -76.5513 C.2       8 UNK         0.5041 
     34 O         -73.9550   27.8265  -76.0553 O.2       8 UNK        -0.5577 
     35 CA        -73.9871   26.2609  -77.8572 C.3       7 UNK         0.0284 
     36 CB        -72.9468   26.2329  -78.9968 C.3       7 UNK        -0.1958 
     37 N         -74.6369   24.9646  -77.6501 N.am      7 UNK        -0.4454 
     38 C         -74.0798   23.7807  -77.3662 C.2       7 UNK         0.5089 
     39 O         -72.8656   23.5866  -77.2744 O.2       7 UNK        -0.5125 
     40 CA        -75.0837   22.6425  -77.1173 C.3       6 UNK         0.0408 
     41 CB        -74.4289   21.2464  -77.0424 C.3       6 UNK        -0.1791 
     42 N         -75.9135   22.9300  -75.9410 N.am      6 UNK        -0.4762 
     43 C         -75.5302   22.9733  -74.6542 C.2       6 UNK         0.5007 
     44 O         -74.4007   22.6730  -74.2680 O.2       6 UNK        -0.5032 
     45 CA        -76.5819   23.4257  -73.6133 C.3       5 UNK         0.0783 
     46 C46       -76.2504   24.8241  -73.0318 C.3       11 UNK        -0.0857 
     47 S47       -75.0819   24.7548  -71.6312 S.3       11 UNK        -0.2512 
     48 C48       -76.1264   25.2127  -70.2065 C.3       11 UNK         0.0225 
     49 N         -77.9567   23.3976  -74.1232 N.am      5 UNK        -0.4615 
     50 C         -78.6856   22.2944  -74.3347 C.2       4 UNK         0.5053 
     51 O         -78.2679   21.1511  -74.1536 O.2       4 UNK        -0.5105 
     52 CA        -80.1235   22.5066  -74.8310 C.3       4 UNK         0.0263 
     53 CB        -81.0658   22.7628  -73.6430 C.3       4 UNK        -0.1981 
     54 N         -80.2045   23.6340  -75.7621 N.am      4 UNK        -0.4224 
     55 C         -80.1230   23.5294  -77.0957 C.2       3 UNK         0.4895 
     56 O         -80.0249   22.4585  -77.6953 O.2       3 UNK        -0.5091 
     57 CA        -80.1506   24.8399  -77.9056 C.3       3 UNK         0.0250 
     58 CB        -81.5941   25.2056  -78.2870 C.3       3 UNK        -0.1996 
     59 N         -79.5338   25.9720  -77.2089 N.am      3 UNK        -0.4254 
     60 C         -78.2290   26.0654  -76.9191 C.2       2 UNK         0.5004 
     61 O         -77.3940   25.2256  -77.2541 O.2       2 UNK        -0.5226 
     62 CA        -77.7762   27.2788  -76.0883 C.3       2 UNK         0.0269 
     63 CB        -77.3594   28.4330  -77.0135 C.3       2 UNK        -0.1926 
     64 N         -78.7640   27.7879  -75.1307 N.am      2 UNK        -0.4687 
     65 C         -79.4320   27.0981  -74.1965 C.2       1 UNK         0.5165 
     66 O         -79.3742   25.8723  -74.0830 O.2       1 UNK        -0.5079 
     67 H67       -82.6116   31.3603  -75.0602 H         1 UNK         0.0900 
     68 H68       -82.2536   30.3966  -76.4958 H         1 UNK         0.0900 
     69 H69       -83.3200   29.7545  -75.2442 H         1 UNK         0.0900 
     70 H70       -82.2987   28.2224  -73.9762 H         1 UNK         0.2959 
     71 H71       -79.6718   28.6797  -72.8292 H         1 UNK         0.1079 
     72 H72       -80.2272   26.3924  -71.6898 H         1 UNK         0.0837 
     73 H73       -81.7856   26.5083  -72.4449 H         1 UNK         0.0837 
     74 H74       -80.5402   27.0804  -68.8855 H         1 UNK         0.0685 
     75 H75       -80.3454   28.8064  -68.7332 H         1 UNK         0.0685 
     76 H76       -78.6140   25.8324  -69.3659 H         1 UNK         0.1434 
     77 H77       -75.2447   27.5518  -71.3640 H         1 UNK         0.1329 
     78 H78       -78.7674   29.9082  -70.6627 H         1 UNK         0.1335 
     79 H79       -76.9450   30.2306  -72.7425 H         1 UNK         0.0680 
     80 H80       -76.5020   30.9760  -71.2211 H         1 UNK         0.0680 
     81 H81       -73.5723   32.0618  -73.0071 H         1 UNK         0.1032 
     82 H82       -75.3015   32.1476  -73.0926 H         1 UNK         0.1032 
     83 H83       -75.1851   30.4589  -75.0474 H         1 UNK         0.0461 
     84 H84       -74.4971   33.2600  -77.5610 H         1 UNK         0.3453 
     85 H85       -73.6154   31.7724  -77.3139 H         1 UNK         0.3453 
     86 H86       -73.2833   29.5239  -75.5606 H         1 UNK         0.2984 
     87 H87       -70.7083   30.3457  -76.8300 H         1 UNK         0.0554 
     88 H88       -69.1188   31.5141  -75.3748 H         1 UNK         0.0847 
     89 H89       -68.5933   29.8511  -75.5655 H         1 UNK         0.0847 
     90 H90       -69.3780   30.3661  -74.0727 H         1 UNK         0.0847 
     91 H91       -71.1902   28.2145  -76.5584 H         1 UNK         0.3141 
     92 H92       -70.7630   25.8827  -74.7637 H         1 UNK         0.0743 
     93 H93       -72.0134   26.0714  -72.6403 H         1 UNK         0.0784 
     94 H94       -72.8571   24.9790  -73.7229 H         1 UNK         0.0784 
     95 H95       -73.4469   26.6258  -73.4935 H         1 UNK         0.0784 
     96 H96       -72.0588   25.3639  -76.5141 H         1 UNK         0.3213 
     97 H97       -74.7793   26.9362  -78.1779 H         1 UNK         0.0855 
     98 H98       -72.0999   25.5816  -78.7819 H         1 UNK         0.0814 
     99 H99       -72.5468   27.2312  -79.1787 H         1 UNK         0.0814 
    100 H100      -73.3968   25.8927  -79.9294 H         1 UNK         0.0814 
    101 H101      -75.6565   25.0053  -77.6177 H         1 UNK         0.3105 
    102 H102      -75.7634   22.6324  -77.9710 H         1 UNK         0.0547 
    103 H103      -75.1715   20.4691  -76.8636 H         1 UNK         0.0837 
    104 H104      -73.6784   21.1819  -76.2545 H         1 UNK         0.0837 
    105 H105      -73.9267   21.0072  -77.9803 H         1 UNK         0.0837 
    106 H106      -76.8506   23.2516  -76.1486 H         1 UNK         0.3020 
    107 H107      -76.5394   22.6966  -72.8005 H         1 UNK         0.1245 
    108 H108      -77.1620   25.3090  -72.6829 H         1 UNK         0.0781 
    109 H109      -75.8470   25.4920  -73.7955 H         1 UNK         0.0781 
    110 H110      -75.5018   25.2426  -69.3129 H         1 UNK         0.0836 
    111 H111      -76.8489   24.4100  -70.0503 H         1 UNK         0.0836 
    112 H112      -78.4096   24.3010  -74.2352 H         1 UNK         0.3022 
    113 H113      -80.4475   21.5896  -75.3282 H         1 UNK         0.0747 
    114 H114      -82.0988   22.8704  -73.9743 H         1 UNK         0.0793 
    115 H115      -81.0373   21.9320  -72.9366 H         1 UNK         0.0793 
    116 H116      -80.7946   23.6664  -73.0951 H         1 UNK         0.0793 
    117 H117      -80.2240   24.5584  -75.3456 H         1 UNK         0.3047 
    118 H118      -79.5871   24.6669  -78.8252 H         1 UNK         0.0822 
    119 H119      -81.6241   26.0832  -78.9331 H         1 UNK         0.0807 
    120 H120      -82.2052   25.4135  -77.4077 H         1 UNK         0.0807 
    121 H121      -82.0723   24.3894  -78.8305 H         1 UNK         0.0807 
    122 H122      -80.1463   26.7113  -76.8970 H         1 UNK         0.2946 
    123 H123      -76.8994   26.9644  -75.5183 H         1 UNK         0.1144 
    124 H124      -76.8507   29.2202  -76.4568 H         1 UNK         0.0793 
    125 H125      -78.2195   28.8784  -77.5149 H         1 UNK         0.0793 
    126 H126      -76.6740   28.0964  -77.7900 H         1 UNK         0.0793 
    127 H127      -78.9430   28.7882  -75.1591 H         1 UNK         0.2896 
@<TRIPOS>BOND
     1    1    2 1    
     2    1   67 1    
     3    1   68 1    
     4    1   69 1    
     5    2    3 2    
     6    2    4 am   BACKBONE|DICT|INTERRES
     7    4    5 1    
     8    4   70 1    
     9    5    6 1    
    10    5   65 1    
    11    5   71 1    
    12    6    7 1    
    13    6   72 1    
    14    6   73 1    
    15    7    8 1    
    16    8    9 1    
    17    8   74 1    
    18    8   75 1    
    19    9   10 ar   
    20    9   14 ar   
    21   10   11 ar   
    22   10   76 1    
    23   11   12 ar   
    24   11   48 1    
    25   12   13 ar   
    26   12   77 1    
    27   13   14 ar   
    28   13   15 1    
    29   14   78 1    
    30   15   16 1    
    31   15   79 1    
    32   15   80 1    
    33   16   17 1    
    34   17   18 1    
    35   17   81 1    
    36   17   82 1    
    37   18   19 1    
    38   18   22 1    
    39   18   83 1    
    40   19   20 am   BACKBONE|DICT|INTERRES
    41   19   21 2    
    42   20   84 1    
    43   20   85 1    
    44   22   23 am   BACKBONE|DICT|INTERRES
    45   22   86 1    
    46   23   24 2    
    47   23   25 1    
    48   25   26 1    
    49   25   27 1    
    50   25   87 1    
    51   26   88 1    
    52   26   89 1    
    53   26   90 1    
    54   27   28 am   BACKBONE|DICT|INTERRES
    55   27   91 1    
    56   28   29 2    
    57   28   30 1    
    58   30   31 1    
    59   30   32 1    
    60   30   92 1    
    61   31   93 1    
    62   31   94 1    
    63   31   95 1    
    64   32   33 am   BACKBONE|DICT|INTERRES
    65   32   96 1    
    66   33   34 2    
    67   33   35 1    
    68   35   36 1    
    69   35   37 1    
    70   35   97 1    
    71   36   98 1    
    72   36   99 1    
    73   36  100 1    
    74   37   38 am   BACKBONE|DICT|INTERRES
    75   37  101 1    
    76   38   39 2    
    77   38   40 1    
    78   40   41 1    
    79   40   42 1    
    80   40  102 1    
    81   41  103 1    
    82   41  104 1    
    83   41  105 1    
    84   42   43 am   BACKBONE|DICT|INTERRES
    85   42  106 1    
    86   43   44 2    
    87   43   45 1    
    88   45   46 1    
    89   45   49 1    
    90   45  107 1    
    91   46   47 1    
    92   46  108 1    
    93   46  109 1    
    94   47   48 1    
    95   48  110 1    
    96   48  111 1    
    97   49   50 am   BACKBONE|DICT|INTERRES
    98   49  112 1    
    99   50   51 2    
   100   50   52 1    
   101   52   53 1    
   102   52   54 1    
   103   52  113 1    
   104   53  114 1    
   105   53  115 1    
   106   53  116 1    
   107   54   55 am   BACKBONE|DICT|INTERRES
   108   54  117 1    
   109   55   56 2    
   110   55   57 1    
   111   57   58 1    
   112   57   59 1    
   113   57  118 1    
   114   58  119 1    
   115   58  120 1    
   116   58  121 1    
   117   59   60 am   BACKBONE|DICT|INTERRES
   118   59  122 1    
   119   60   61 2    
   120   60   62 1    
   121   62   63 1    
   122   62   64 1    
   123   62  123 1    
   124   63  124 1    
   125   63  125 1    
   126   63  126 1    
   127   64   65 am   BACKBONE|DICT|INTERRES
   128   64  127 1    
   129   65   66 2    
@<TRIPOS>SUBSTRUCTURE
     1 UNK         1 GROUP             0       ****    0 ROOT    
