@<TRIPOS>MOLECULE
3R135
127   129    1
SMALL
USER_CHARGES


@<TRIPOS>ATOM
      1 CA        -83.5044   24.1101  -73.9542 C.3       0 UNK        -0.1998 
      2 C         -83.0169   25.5480  -74.0399 C.2       0 UNK         0.4909 
      3 O         -82.9826   26.1194  -75.1302 O.2       0 UNK        -0.5240 
      4 N         -82.6348   26.1417  -72.9019 N.am      1 UNK        -0.4739 
      5 CA        -82.0587   27.4878  -72.8203 C.3       1 UNK         0.0864 
      6 C6        -81.9984   28.0209  -71.3668 C.3       11 UNK        -0.0881 
      7 S7        -81.1878   26.8969  -70.1742 S.3       11 UNK        -0.2682 
      8 C8        -80.1263   28.0463  -69.2455 C.3       11 UNK         0.0289 
      9 C9        -78.8251   28.3632  -69.9707 C.ar      11 UNK        -0.0687 
     10 C10       -77.7716   27.4461  -69.9385 C.ar      11 UNK        -0.0823 
     11 C11       -76.5389   27.7552  -70.5204 C.ar      11 UNK        -0.0830 
     12 C12       -76.3637   28.9954  -71.1441 C.ar      11 UNK        -0.1021 
     13 C13       -77.4112   29.9226  -71.1864 C.ar      11 UNK        -0.0753 
     14 C14       -78.6431   29.5945  -70.6082 C.ar      11 UNK        -0.0933 
     15 C15       -77.1970   31.3103  -71.7793 C.3       11 UNK         0.0166 
     16 S16       -77.1950   31.3138  -73.6001 S.3       11 UNK        -0.2615 
     17 C17       -75.4357   31.0251  -73.9953 C.3       11 UNK        -0.0865 
     18 CA        -75.1919   29.6904  -74.7635 C.3       10 UNK         0.0862 
     19 C         -75.3231   29.8133  -76.3126 C.2       10 UNK         0.5551 
     20 N         -74.7919   28.8654  -77.0739 N.am      10 UNK        -0.7319 
     21 O         -75.8992   30.7647  -76.8341 O.2       10 UNK        -0.5018 
     22 N         -73.9520   29.0236  -74.3309 N.am      10 UNK        -0.4509 
     23 C         -72.7166   29.5305  -74.4363 C.2       10 UNK         0.4899 
     24 O         -72.4565   30.6315  -74.9209 O.2       10 UNK        -0.4839 
     25 CA        -71.5804   28.6665  -73.8839 C.3       9 UNK         0.0222 
     26 CB        -71.7143   28.4757  -72.3582 C.3       9 UNK        -0.1966 
     27 N         -71.5043   27.3799  -74.5791 N.am      9 UNK        -0.4218 
     28 C         -70.4203   26.5912  -74.5751 C.2       9 UNK         0.5020 
     29 O         -69.3834   26.8500  -73.9615 O.2       9 UNK        -0.5274 
     30 CA        -70.4912   25.2911  -75.3920 C.3       8 UNK         0.0270 
     31 CB        -71.2225   24.1948  -74.5994 C.3       8 UNK        -0.1976 
     32 N         -71.1287   25.4551  -76.6981 N.am      8 UNK        -0.4313 
     33 C         -70.6646   26.1865  -77.7191 C.2       8 UNK         0.5041 
     34 O         -69.6118   26.8240  -77.6745 O.2       8 UNK        -0.5577 
     35 CA        -71.5038   26.2286  -79.0148 C.3       7 UNK         0.0284 
     36 CB        -70.9808   25.2059  -80.0432 C.3       7 UNK        -0.1958 
     37 N         -72.9587   26.1024  -78.8221 N.am      7 UNK        -0.4454 
     38 C         -73.6541   25.0539  -78.3619 C.2       7 UNK         0.5089 
     39 O         -73.1565   23.9651  -78.0681 O.2       7 UNK        -0.5125 
     40 CA        -75.1495   25.2891  -78.1024 C.3       6 UNK         0.0408 
     41 CB        -76.0040   24.4533  -79.0674 C.3       6 UNK        -0.1791 
     42 N         -75.5113   24.9657  -76.7192 N.am      6 UNK        -0.4762 
     43 C         -74.9601   25.4990  -75.6158 C.2       6 UNK         0.5007 
     44 O         -74.0769   26.3629  -75.6454 O.2       6 UNK        -0.5032 
     45 CA        -75.4839   24.9906  -74.2571 C.3       5 UNK         0.0783 
     46 C46       -75.2233   25.9993  -73.1096 C.3       11 UNK        -0.0857 
     47 S47       -75.6241   25.3090  -71.4743 S.3       11 UNK        -0.2512 
     48 C48       -75.3855   26.7674  -70.4130 C.3       11 UNK         0.0225 
     49 N         -76.9036   24.6526  -74.3720 N.am      5 UNK        -0.4615 
     50 C         -77.4381   23.4448  -74.1559 C.2       4 UNK         0.5053 
     51 O         -76.7859   22.4524  -73.8316 O.2       4 UNK        -0.5105 
     52 CA        -78.9583   23.3098  -74.3537 C.3       4 UNK         0.0263 
     53 CB        -79.6832   23.3421  -72.9981 C.3       4 UNK        -0.1981 
     54 N         -79.5013   24.3479  -75.2369 N.am      4 UNK        -0.4224 
     55 C         -79.3526   24.3374  -76.5715 C.2       3 UNK         0.4895 
     56 O         -78.8044   23.4195  -77.1819 O.2       3 UNK        -0.5091 
     57 CA        -79.8739   25.5448  -77.3719 C.3       3 UNK         0.0250 
     58 CB        -81.2188   25.2110  -78.0367 C.3       3 UNK        -0.1996 
     59 N         -80.0099   26.7665  -76.5763 N.am      3 UNK        -0.4254 
     60 C         -78.9770   27.4890  -76.1158 C.2       2 UNK         0.5004 
     61 O         -77.7990   27.2039  -76.3200 O.2       2 UNK        -0.5226 
     62 CA        -79.3095   28.7065  -75.2350 C.3       2 UNK         0.0269 
     63 CB        -79.4698   29.9630  -76.1051 C.3       2 UNK        -0.1926 
     64 N         -80.5064   28.5384  -74.4042 N.am      2 UNK        -0.4687 
     65 C         -80.6914   27.5394  -73.5305 C.2       1 UNK         0.5165 
     66 O         -79.8587   26.6542  -73.3259 O.2       1 UNK        -0.5079 
     67 H67       -82.9005   23.4718  -74.5987 H         1 UNK         0.0900 
     68 H68       -84.5406   24.0457  -74.2849 H         1 UNK         0.0900 
     69 H69       -83.4463   23.7203  -72.9382 H         1 UNK         0.0900 
     70 H70       -82.6408   25.6258  -72.0332 H         1 UNK         0.2959 
     71 H71       -82.7356   28.1464  -73.3695 H         1 UNK         0.1079 
     72 H72       -81.5170   29.0000  -71.3456 H         1 UNK         0.0837 
     73 H73       -83.0142   28.1927  -71.0076 H         1 UNK         0.0837 
     74 H74       -80.6803   28.9590  -69.0204 H         1 UNK         0.0685 
     75 H75       -79.8928   27.5946  -68.2802 H         1 UNK         0.0685 
     76 H76       -77.9052   26.4953  -69.4404 H         1 UNK         0.1434 
     77 H77       -75.4046   29.2500  -71.5719 H         1 UNK         0.1329 
     78 H78       -79.4491   30.3152  -70.6187 H         1 UNK         0.1335 
     79 H79       -77.9902   31.9814  -71.4462 H         1 UNK         0.0680 
     80 H80       -76.2715   31.7415  -71.3955 H         1 UNK         0.0680 
     81 H81       -74.8683   31.0342  -73.0647 H         1 UNK         0.1032 
     82 H82       -75.0534   31.8784  -74.5587 H         1 UNK         0.1032 
     83 H83       -75.9820   28.9960  -74.4773 H         1 UNK         0.0461 
     84 H84       -74.8789   28.9427  -78.0731 H         1 UNK         0.3453 
     85 H85       -74.3884   28.0431  -76.6422 H         1 UNK         0.3453 
     86 H86       -74.0596   28.0815  -73.9887 H         1 UNK         0.2984 
     87 H87       -70.6526   29.2104  -74.0755 H         1 UNK         0.0554 
     88 H88       -70.8149   28.0315  -71.9321 H         1 UNK         0.0847 
     89 H89       -72.5538   27.8322  -72.0987 H         1 UNK         0.0847 
     90 H90       -71.8657   29.4316  -71.8549 H         1 UNK         0.0847 
     91 H91       -72.3147   27.0967  -75.1243 H         1 UNK         0.3141 
     92 H92       -69.4669   24.9562  -75.5688 H         1 UNK         0.0743 
     93 H93       -72.2601   24.4626  -74.3998 H         1 UNK         0.0784 
     94 H94       -71.2181   23.2462  -75.1367 H         1 UNK         0.0784 
     95 H95       -70.7398   24.0232  -73.6362 H         1 UNK         0.0784 
     96 H96       -71.9753   24.9213  -76.8702 H         1 UNK         0.3213 
     97 H97       -71.3525   27.2224  -79.4398 H         1 UNK         0.0855 
     98 H98       -69.9279   25.3845  -80.2657 H         1 UNK         0.0814 
     99 H99       -71.5264   25.2743  -80.9842 H         1 UNK         0.0814 
    100 H100      -71.0627   24.1809  -79.6806 H         1 UNK         0.0814 
    101 H101      -73.4753   26.9522  -79.0002 H         1 UNK         0.3105 
    102 H102      -75.3844   26.3421  -78.2657 H         1 UNK         0.0547 
    103 H103      -75.7423   24.6642  -80.1051 H         1 UNK         0.0837 
    104 H104      -75.8655   23.3834  -78.9065 H         1 UNK         0.0837 
    105 H105      -77.0642   24.6752  -78.9523 H         1 UNK         0.0837 
    106 H106      -76.2297   24.2665  -76.5975 H         1 UNK         0.3020 
    107 H107      -74.9017   24.0906  -74.0465 H         1 UNK         0.1245 
    108 H108      -75.8090   26.9072  -73.2609 H         1 UNK         0.0781 
    109 H109      -74.1724   26.2897  -73.0802 H         1 UNK         0.0781 
    110 H110      -74.4351   27.2457  -70.6523 H         1 UNK         0.0836 
    111 H111      -75.3006   26.4335  -69.3778 H         1 UNK         0.0836 
    112 H112      -77.5105   25.4079  -74.6631 H         1 UNK         0.3022 
    113 H113      -79.1465   22.3355  -74.8101 H         1 UNK         0.0747 
    114 H114      -80.7619   23.2514  -73.1182 H         1 UNK         0.0793 
    115 H115      -79.3577   22.5141  -72.3670 H         1 UNK         0.0793 
    116 H116      -79.4799   24.2614  -72.4482 H         1 UNK         0.0793 
    117 H117      -79.9035   25.1620  -74.7842 H         1 UNK         0.3047 
    118 H118      -79.1487   25.7450  -78.1633 H         1 UNK         0.0822 
    119 H119      -81.5807   26.0412  -78.6435 H         1 UNK         0.0807 
    120 H120      -81.9866   24.9715  -77.3010 H         1 UNK         0.0807 
    121 H121      -81.1223   24.3472  -78.6961 H         1 UNK         0.0807 
    122 H122      -80.9493   27.0431  -76.3224 H         1 UNK         0.2946 
    123 H123      -78.4647   28.8500  -74.5589 H         1 UNK         0.1144 
    124 H124      -79.6128   30.8546  -75.4947 H         1 UNK         0.0793 
    125 H125      -80.3185   29.8799  -76.7850 H         1 UNK         0.0793 
    126 H126      -78.5801   30.1307  -76.7135 H         1 UNK         0.0793 
    127 H127      -81.2400   29.2208  -74.5322 H         1 UNK         0.2896 
@<TRIPOS>BOND
     1    1    2 1    
     2    1   67 1    
     3    1   68 1    
     4    1   69 1    
     5    2    3 2    
     6    2    4 am   BACKBONE|DICT|INTERRES
     7    4    5 1    
     8    4   70 1    
     9    5    6 1    
    10    5   65 1    
    11    5   71 1    
    12    6    7 1    
    13    6   72 1    
    14    6   73 1    
    15    7    8 1    
    16    8    9 1    
    17    8   74 1    
    18    8   75 1    
    19    9   10 ar   
    20    9   14 ar   
    21   10   11 ar   
    22   10   76 1    
    23   11   12 ar   
    24   11   48 1    
    25   12   13 ar   
    26   12   77 1    
    27   13   14 ar   
    28   13   15 1    
    29   14   78 1    
    30   15   16 1    
    31   15   79 1    
    32   15   80 1    
    33   16   17 1    
    34   17   18 1    
    35   17   81 1    
    36   17   82 1    
    37   18   19 1    
    38   18   22 1    
    39   18   83 1    
    40   19   20 am   BACKBONE|DICT|INTERRES
    41   19   21 2    
    42   20   84 1    
    43   20   85 1    
    44   22   23 am   BACKBONE|DICT|INTERRES
    45   22   86 1    
    46   23   24 2    
    47   23   25 1    
    48   25   26 1    
    49   25   27 1    
    50   25   87 1    
    51   26   88 1    
    52   26   89 1    
    53   26   90 1    
    54   27   28 am   BACKBONE|DICT|INTERRES
    55   27   91 1    
    56   28   29 2    
    57   28   30 1    
    58   30   31 1    
    59   30   32 1    
    60   30   92 1    
    61   31   93 1    
    62   31   94 1    
    63   31   95 1    
    64   32   33 am   BACKBONE|DICT|INTERRES
    65   32   96 1    
    66   33   34 2    
    67   33   35 1    
    68   35   36 1    
    69   35   37 1    
    70   35   97 1    
    71   36   98 1    
    72   36   99 1    
    73   36  100 1    
    74   37   38 am   BACKBONE|DICT|INTERRES
    75   37  101 1    
    76   38   39 2    
    77   38   40 1    
    78   40   41 1    
    79   40   42 1    
    80   40  102 1    
    81   41  103 1    
    82   41  104 1    
    83   41  105 1    
    84   42   43 am   BACKBONE|DICT|INTERRES
    85   42  106 1    
    86   43   44 2    
    87   43   45 1    
    88   45   46 1    
    89   45   49 1    
    90   45  107 1    
    91   46   47 1    
    92   46  108 1    
    93   46  109 1    
    94   47   48 1    
    95   48  110 1    
    96   48  111 1    
    97   49   50 am   BACKBONE|DICT|INTERRES
    98   49  112 1    
    99   50   51 2    
   100   50   52 1    
   101   52   53 1    
   102   52   54 1    
   103   52  113 1    
   104   53  114 1    
   105   53  115 1    
   106   53  116 1    
   107   54   55 am   BACKBONE|DICT|INTERRES
   108   54  117 1    
   109   55   56 2    
   110   55   57 1    
   111   57   58 1    
   112   57   59 1    
   113   57  118 1    
   114   58  119 1    
   115   58  120 1    
   116   58  121 1    
   117   59   60 am   BACKBONE|DICT|INTERRES
   118   59  122 1    
   119   60   61 2    
   120   60   62 1    
   121   62   63 1    
   122   62   64 1    
   123   62  123 1    
   124   63  124 1    
   125   63  125 1    
   126   63  126 1    
   127   64   65 am   BACKBONE|DICT|INTERRES
   128   64  127 1    
   129   65   66 2    
@<TRIPOS>SUBSTRUCTURE
     1 UNK         1 GROUP             0       ****    0 ROOT    
