@<TRIPOS>MOLECULE
3R135
127   129    1
SMALL
USER_CHARGES


@<TRIPOS>ATOM
      1 CA        -84.3495   25.3631  -70.6593 C.3       0 UNK        -0.1998 
      2 C         -84.0491   26.2685  -71.8443 C.2       0 UNK         0.4909 
      3 O         -84.9450   26.5550  -72.6389 O.2       0 UNK        -0.5240 
      4 N         -82.7946   26.7220  -71.9674 N.am      1 UNK        -0.4739 
      5 CA        -82.3208   27.6069  -73.0432 C.3       1 UNK         0.0864 
      6 C6        -80.9520   28.2452  -72.7060 C.3       11 UNK        -0.0881 
      7 S7        -80.9528   29.1190  -71.1035 S.3       11 UNK        -0.2682 
      8 C8        -79.5713   30.2915  -71.3246 C.3       11 UNK         0.0289 
      9 C9        -78.2449   29.6394  -71.7131 C.ar      11 UNK        -0.0687 
     10 C10       -77.8442   28.4101  -71.1756 C.ar      11 UNK        -0.0823 
     11 C11       -76.6359   27.8195  -71.5606 C.ar      11 UNK        -0.0830 
     12 C12       -75.7971   28.4968  -72.4522 C.ar      11 UNK        -0.1021 
     13 C13       -76.1660   29.7421  -72.9676 C.ar      11 UNK        -0.0753 
     14 C14       -77.3960   30.2988  -72.6067 C.ar      11 UNK        -0.0933 
     15 C15       -75.2300   30.5065  -73.8907 C.3       11 UNK         0.0166 
     16 S16       -74.2380   31.6948  -72.9342 S.3       11 UNK        -0.2615 
     17 C17       -73.5018   32.7317  -74.2472 C.3       11 UNK        -0.0865 
     18 CA        -71.9633   32.5947  -74.4711 C.3       10 UNK         0.0862 
     19 C         -71.0426   32.8469  -73.2353 C.2       10 UNK         0.5551 
     20 N         -71.5103   33.5538  -72.2149 N.am      10 UNK        -0.7319 
     21 O         -69.8709   32.4728  -73.2279 O.2       10 UNK        -0.5018 
     22 N         -71.6046   31.4240  -75.2879 N.am      10 UNK        -0.4509 
     23 C         -71.4656   30.1531  -74.8889 C.2       10 UNK         0.4899 
     24 O         -71.6465   29.7543  -73.7372 O.2       10 UNK        -0.4839 
     25 CA        -71.0655   29.1753  -76.0075 C.3       9 UNK         0.0222 
     26 CB        -69.6005   29.3733  -76.4526 C.3       9 UNK        -0.1966 
     27 N         -71.3611   27.7761  -75.6809 N.am      9 UNK        -0.4218 
     28 C         -70.7178   26.9415  -74.8469 C.2       9 UNK         0.5020 
     29 O         -69.6814   27.2244  -74.2433 O.2       9 UNK        -0.5274 
     30 CA        -71.3209   25.5345  -74.6446 C.3       8 UNK         0.0270 
     31 CB        -71.8454   25.3770  -73.2069 C.3       8 UNK        -0.1976 
     32 N         -72.3961   25.2148  -75.5908 N.am      8 UNK        -0.4313 
     33 C         -72.2019   24.9193  -76.8862 C.2       8 UNK         0.5041 
     34 O         -71.0848   24.7746  -77.3844 O.2       8 UNK        -0.5577 
     35 CA        -73.4390   24.7908  -77.7999 C.3       7 UNK         0.0284 
     36 CB        -73.7526   23.3088  -78.0632 C.3       7 UNK        -0.1958 
     37 N         -74.6493   25.4526  -77.3028 N.am      7 UNK        -0.4454 
     38 C         -74.7732   26.7490  -76.9841 C.2       7 UNK         0.5089 
     39 O         -73.8819   27.5819  -77.1466 O.2       7 UNK        -0.5125 
     40 CA        -76.0829   27.1739  -76.2941 C.3       6 UNK         0.0408 
     41 CB        -77.0989   27.6773  -77.3284 C.3       6 UNK        -0.1791 
     42 N         -76.6949   26.1248  -75.4680 N.am      6 UNK        -0.4762 
     43 C         -76.0904   25.4911  -74.4486 C.2       6 UNK         0.5007 
     44 O         -74.9162   25.6720  -74.1287 O.2       6 UNK        -0.5032 
     45 CA        -76.9303   24.4468  -73.6960 C.3       5 UNK         0.0783 
     46 C46       -77.9977   25.1221  -72.7922 C.3       11 UNK        -0.0857 
     47 S47       -77.5162   25.1903  -71.0338 S.3       11 UNK        -0.2512 
     48 C48       -76.2095   26.4693  -70.9925 C.3       11 UNK         0.0225 
     49 N         -77.5190   23.5208  -74.6641 N.am      5 UNK        -0.4615 
     50 C         -76.8580   22.4971  -75.2240 C.2       4 UNK         0.5053 
     51 O         -75.7279   22.1477  -74.8844 O.2       4 UNK        -0.5105 
     52 CA        -77.5595   21.7390  -76.3668 C.3       4 UNK         0.0263 
     53 CB        -78.2729   20.4909  -75.8228 C.3       4 UNK        -0.1981 
     54 N         -78.5209   22.5575  -77.1097 N.am      4 UNK        -0.4224 
     55 C         -78.2070   23.6316  -77.8490 C.2       3 UNK         0.4895 
     56 O         -77.0554   24.0163  -78.0435 O.2       3 UNK        -0.5091 
     57 CA        -79.3811   24.4492  -78.4171 C.3       3 UNK         0.0250 
     58 CB        -79.7607   23.9415  -79.8169 C.3       3 UNK        -0.1996 
     59 N         -80.5702   24.4539  -77.5562 N.am      3 UNK        -0.4254 
     60 C         -80.6026   24.8843  -76.2866 C.2       2 UNK         0.5004 
     61 O         -79.6185   25.3263  -75.6849 O.2       2 UNK        -0.5226 
     62 CA        -81.9394   24.6968  -75.5517 C.3       2 UNK         0.0269 
     63 CB        -82.0909   23.2355  -75.0950 C.3       2 UNK        -0.1926 
     64 N         -82.0564   25.5609  -74.3782 N.am      2 UNK        -0.4687 
     65 C         -82.2450   26.8876  -74.4076 C.2       1 UNK         0.5165 
     66 O         -82.3712   27.5378  -75.4467 O.2       1 UNK        -0.5079 
     67 H67       -85.1260   25.8062  -70.0363 H         1 UNK         0.0900 
     68 H68       -83.4693   25.1990  -70.0379 H         1 UNK         0.0900 
     69 H69       -84.7039   24.3937  -71.0085 H         1 UNK         0.0900 
     70 H70       -82.1070   26.4845  -71.2663 H         1 UNK         0.2959 
     71 H71       -83.0499   28.4131  -73.1527 H         1 UNK         0.1079 
     72 H72       -80.1718   27.4832  -72.6768 H         1 UNK         0.0837 
     73 H73       -80.6618   28.9504  -73.4879 H         1 UNK         0.0837 
     74 H74       -79.8671   31.0252  -72.0762 H         1 UNK         0.0685 
     75 H75       -79.4287   30.8423  -70.3942 H         1 UNK         0.0685 
     76 H76       -78.4817   27.8998  -70.4670 H         1 UNK         0.1434 
     77 H77       -74.8473   28.0634  -72.7366 H         1 UNK         0.1329 
     78 H78       -77.6805   31.2622  -73.0078 H         1 UNK         0.1335 
     79 H79       -75.8118   31.0319  -74.6496 H         1 UNK         0.0680 
     80 H80       -74.5655   29.8224  -74.4211 H         1 UNK         0.0680 
     81 H81       -73.7377   33.7693  -74.0056 H         1 UNK         0.1032 
     82 H82       -74.0220   32.5468  -75.1880 H         1 UNK         0.1032 
     83 H83       -71.7015   33.4261  -75.1268 H         1 UNK         0.0461 
     84 H84       -70.9067   33.7422  -71.4300 H         1 UNK         0.3453 
     85 H85       -72.4721   33.8534  -72.1934 H         1 UNK         0.3453 
     86 H86       -71.4017   31.6339  -76.2545 H         1 UNK         0.2984 
     87 H87       -71.7016   29.3993  -76.8654 H         1 UNK         0.0554 
     88 H88       -69.3115   28.6426  -77.2081 H         1 UNK         0.0847 
     89 H89       -68.9049   29.2874  -75.6173 H         1 UNK         0.0847 
     90 H90       -69.4525   30.3619  -76.8880 H         1 UNK         0.0847 
     91 H91       -72.2224   27.4390  -76.1012 H         1 UNK         0.3141 
     92 H92       -70.5153   24.8117  -74.7897 H         1 UNK         0.0743 
     93 H93       -72.5902   26.1362  -72.9652 H         1 UNK         0.0784 
     94 H94       -72.2983   24.3978  -73.0501 H         1 UNK         0.0784 
     95 H95       -71.0349   25.4799  -72.4843 H         1 UNK         0.0784 
     96 H96       -73.3460   25.3172  -75.2404 H         1 UNK         0.3213 
     97 H97       -73.1827   25.2619  -78.7508 H         1 UNK         0.0855 
     98 H98       -74.0713   22.7979  -77.1537 H         1 UNK         0.0814 
     99 H99       -72.8759   22.7829  -78.4440 H         1 UNK         0.0814 
    100 H100      -74.5425   23.1956  -78.8059 H         1 UNK         0.0814 
    101 H101      -75.4780   24.8702  -77.2199 H         1 UNK         0.3105 
    102 H102      -75.8448   28.0017  -75.6241 H         1 UNK         0.0547 
    103 H103      -76.7124   28.5500  -77.8563 H         1 UNK         0.0837 
    104 H104      -77.3148   26.9173  -78.0783 H         1 UNK         0.0837 
    105 H105      -78.0386   27.9704  -76.8597 H         1 UNK         0.0837 
    106 H106      -77.6679   25.9026  -75.6575 H         1 UNK         0.3020 
    107 H107      -76.2458   23.8753  -73.0641 H         1 UNK         0.1245 
    108 H108      -78.9279   24.5523  -72.8241 H         1 UNK         0.0781 
    109 H109      -78.2731   26.1204  -73.1376 H         1 UNK         0.0781 
    110 H110      -75.3306   26.0888  -71.5142 H         1 UNK         0.0836 
    111 H111      -75.9023   26.6145  -69.9561 H         1 UNK         0.0836 
    112 H112      -78.4197   23.7920  -75.0397 H         1 UNK         0.3022 
    113 H113      -76.7859   21.4162  -77.0670 H         1 UNK         0.0747 
    114 H114      -78.7040   19.8965  -76.6286 H         1 UNK         0.0793 
    115 H115      -77.5755   19.8464  -75.2855 H         1 UNK         0.0793 
    116 H116      -79.0743   20.7523  -75.1304 H         1 UNK         0.0793 
    117 H117      -79.4954   22.3129  -77.0153 H         1 UNK         0.3047 
    118 H118      -79.0472   25.4829  -78.5111 H         1 UNK         0.0822 
    119 H119      -80.5244   24.5707  -80.2745 H         1 UNK         0.0807 
    120 H120      -80.1390   22.9188  -79.7890 H         1 UNK         0.0807 
    121 H121      -78.8960   23.9510  -80.4823 H         1 UNK         0.0807 
    122 H122      -81.4197   24.0929  -77.9669 H         1 UNK         0.2946 
    123 H123      -82.7511   24.9439  -76.2401 H         1 UNK         0.1144 
    124 H124      -82.0673   22.5497  -75.9428 H         1 UNK         0.0793 
    125 H125      -83.0412   23.0770  -74.5844 H         1 UNK         0.0793 
    126 H126      -81.2918   22.9397  -74.4135 H         1 UNK         0.0793 
    127 H127      -81.9503   25.1209  -73.4765 H         1 UNK         0.2896 
@<TRIPOS>BOND
     1    1    2 1    
     2    1   67 1    
     3    1   68 1    
     4    1   69 1    
     5    2    3 2    
     6    2    4 am   BACKBONE|DICT|INTERRES
     7    4    5 1    
     8    4   70 1    
     9    5    6 1    
    10    5   65 1    
    11    5   71 1    
    12    6    7 1    
    13    6   72 1    
    14    6   73 1    
    15    7    8 1    
    16    8    9 1    
    17    8   74 1    
    18    8   75 1    
    19    9   10 ar   
    20    9   14 ar   
    21   10   11 ar   
    22   10   76 1    
    23   11   12 ar   
    24   11   48 1    
    25   12   13 ar   
    26   12   77 1    
    27   13   14 ar   
    28   13   15 1    
    29   14   78 1    
    30   15   16 1    
    31   15   79 1    
    32   15   80 1    
    33   16   17 1    
    34   17   18 1    
    35   17   81 1    
    36   17   82 1    
    37   18   19 1    
    38   18   22 1    
    39   18   83 1    
    40   19   20 am   BACKBONE|DICT|INTERRES
    41   19   21 2    
    42   20   84 1    
    43   20   85 1    
    44   22   23 am   BACKBONE|DICT|INTERRES
    45   22   86 1    
    46   23   24 2    
    47   23   25 1    
    48   25   26 1    
    49   25   27 1    
    50   25   87 1    
    51   26   88 1    
    52   26   89 1    
    53   26   90 1    
    54   27   28 am   BACKBONE|DICT|INTERRES
    55   27   91 1    
    56   28   29 2    
    57   28   30 1    
    58   30   31 1    
    59   30   32 1    
    60   30   92 1    
    61   31   93 1    
    62   31   94 1    
    63   31   95 1    
    64   32   33 am   BACKBONE|DICT|INTERRES
    65   32   96 1    
    66   33   34 2    
    67   33   35 1    
    68   35   36 1    
    69   35   37 1    
    70   35   97 1    
    71   36   98 1    
    72   36   99 1    
    73   36  100 1    
    74   37   38 am   BACKBONE|DICT|INTERRES
    75   37  101 1    
    76   38   39 2    
    77   38   40 1    
    78   40   41 1    
    79   40   42 1    
    80   40  102 1    
    81   41  103 1    
    82   41  104 1    
    83   41  105 1    
    84   42   43 am   BACKBONE|DICT|INTERRES
    85   42  106 1    
    86   43   44 2    
    87   43   45 1    
    88   45   46 1    
    89   45   49 1    
    90   45  107 1    
    91   46   47 1    
    92   46  108 1    
    93   46  109 1    
    94   47   48 1    
    95   48  110 1    
    96   48  111 1    
    97   49   50 am   BACKBONE|DICT|INTERRES
    98   49  112 1    
    99   50   51 2    
   100   50   52 1    
   101   52   53 1    
   102   52   54 1    
   103   52  113 1    
   104   53  114 1    
   105   53  115 1    
   106   53  116 1    
   107   54   55 am   BACKBONE|DICT|INTERRES
   108   54  117 1    
   109   55   56 2    
   110   55   57 1    
   111   57   58 1    
   112   57   59 1    
   113   57  118 1    
   114   58  119 1    
   115   58  120 1    
   116   58  121 1    
   117   59   60 am   BACKBONE|DICT|INTERRES
   118   59  122 1    
   119   60   61 2    
   120   60   62 1    
   121   62   63 1    
   122   62   64 1    
   123   62  123 1    
   124   63  124 1    
   125   63  125 1    
   126   63  126 1    
   127   64   65 am   BACKBONE|DICT|INTERRES
   128   64  127 1    
   129   65   66 2    
@<TRIPOS>SUBSTRUCTURE
     1 UNK         1 GROUP             0       ****    0 ROOT    
