@<TRIPOS>MOLECULE
3R135
127   129    1
SMALL
USER_CHARGES


@<TRIPOS>ATOM
      1 CA        -77.6189   29.5259  -69.3288 C.3       0 UNK        -0.1998 
      2 C         -78.6100   28.3717  -69.3115 C.2       0 UNK         0.4909 
      3 O         -78.6808   27.6439  -68.3209 O.2       0 UNK        -0.5240 
      4 N         -79.3768   28.1981  -70.3965 N.am      1 UNK        -0.4739 
      5 CA        -80.3546   27.1150  -70.5589 C.3       1 UNK         0.0864 
      6 C6        -81.3129   27.3687  -71.7479 C.3       11 UNK        -0.0881 
      7 S7        -82.4039   28.8217  -71.5480 S.3       11 UNK        -0.2682 
      8 C8        -81.4101   30.2572  -72.0956 C.3       11 UNK         0.0289 
      9 C9        -80.4880   29.9801  -73.2783 C.ar      11 UNK        -0.0687 
     10 C10       -80.9902   29.4624  -74.4779 C.ar      11 UNK        -0.0823 
     11 C11       -80.1404   29.1847  -75.5549 C.ar      11 UNK        -0.0830 
     12 C12       -78.7734   29.4675  -75.4223 C.ar      11 UNK        -0.1021 
     13 C13       -78.2586   29.9822  -74.2306 C.ar      11 UNK        -0.0753 
     14 C14       -79.1207   30.2452  -73.1658 C.ar      11 UNK        -0.0933 
     15 C15       -76.7667   30.2373  -74.0944 C.3       11 UNK         0.0166 
     16 S16       -75.8821   28.6764  -73.7986 S.3       11 UNK        -0.2615 
     17 C17       -74.9213   29.0446  -72.2927 C.3       11 UNK        -0.0865 
     18 CA        -73.5922   29.8027  -72.5594 C.3       10 UNK         0.0862 
     19 C         -72.8032   29.9778  -71.2287 C.2       10 UNK         0.5551 
     20 N         -71.6715   29.3107  -71.0369 N.am      10 UNK        -0.7319 
     21 O         -73.2323   30.7293  -70.3570 O.2       10 UNK        -0.5018 
     22 N         -72.8287   29.2055  -73.6676 N.am      10 UNK        -0.4509 
     23 C         -71.7721   29.7552  -74.2803 C.2       10 UNK         0.4899 
     24 O         -71.3096   30.8556  -73.9771 O.2       10 UNK        -0.4839 
     25 CA        -71.1387   28.9776  -75.4534 C.3       9 UNK         0.0222 
     26 CB        -69.6008   28.9136  -75.3416 C.3       9 UNK        -0.1966 
     27 N         -71.7146   27.6456  -75.6943 N.am      9 UNK        -0.4218 
     28 C         -71.6426   26.5563  -74.9105 C.2       9 UNK         0.5020 
     29 O         -71.0328   26.5281  -73.8409 O.2       9 UNK        -0.5274 
     30 CA        -72.4189   25.2984  -75.3502 C.3       8 UNK         0.0270 
     31 CB        -73.5317   24.9864  -74.3363 C.3       8 UNK        -0.1976 
     32 N         -73.0128   25.4209  -76.6852 N.am      8 UNK        -0.4313 
     33 C         -72.3437   25.2286  -77.8329 C.2       8 UNK         0.5041 
     34 O         -71.1811   24.8253  -77.8802 O.2       8 UNK        -0.5577 
     35 CA        -73.0636   25.5754  -79.1528 C.3       7 UNK         0.0284 
     36 CB        -73.5920   24.3048  -79.8356 C.3       7 UNK        -0.1958 
     37 N         -74.1620   26.5337  -78.9964 N.am      7 UNK        -0.4454 
     38 C         -74.0215   27.7959  -78.5668 C.2       7 UNK         0.5089 
     39 O         -72.9301   28.3139  -78.3318 O.2       7 UNK        -0.5125 
     40 CA        -75.3031   28.6022  -78.2874 C.3       6 UNK         0.0408 
     41 CB        -75.5867   29.5761  -79.4409 C.3       6 UNK        -0.1791 
     42 N         -76.5064   27.8030  -78.0282 N.am      6 UNK        -0.4762 
     43 C         -76.6530   26.8654  -77.0820 C.2       6 UNK         0.5007 
     44 O         -75.7219   26.4762  -76.3728 O.2       6 UNK        -0.5032 
     45 CA        -78.0578   26.2397  -76.8948 C.3       5 UNK         0.0783 
     46 C46       -79.1090   26.5481  -78.0054 C.3       11 UNK        -0.0857 
     47 S47       -79.6027   28.2987  -78.2161 S.3       11 UNK        -0.2512 
     48 C48       -80.7550   28.5874  -76.8257 C.3       11 UNK         0.0225 
     49 N         -77.9312   24.7980  -76.6487 N.am      5 UNK        -0.4615 
     50 C         -77.4007   23.8950  -77.4910 C.2       4 UNK         0.5053 
     51 O         -77.0292   24.1698  -78.6330 O.2       4 UNK        -0.5105 
     52 CA        -77.2159   22.4484  -76.9902 C.3       4 UNK         0.0263 
     53 CB        -75.7215   22.0950  -76.9015 C.3       4 UNK        -0.1981 
     54 N         -77.8334   22.1996  -75.6870 N.am      4 UNK        -0.4224 
     55 C         -79.1333   21.9410  -75.4938 C.2       3 UNK         0.4895 
     56 O         -79.9520   21.8175  -76.4053 O.2       3 UNK        -0.5091 
     57 CA        -79.6058   21.8174  -74.0332 C.3       3 UNK         0.0250 
     58 CB        -79.6449   20.3411  -73.6058 C.3       3 UNK        -0.1996 
     59 N         -78.8050   22.5814  -73.0658 N.am      3 UNK        -0.4254 
     60 C         -78.6685   23.9146  -73.0711 C.2       2 UNK         0.5004 
     61 O         -79.1292   24.6479  -73.9495 O.2       2 UNK        -0.5226 
     62 CA        -77.8518   24.5370  -71.9270 C.3       2 UNK         0.0269 
     63 CB        -76.4418   24.9013  -72.4157 C.3       2 UNK        -0.1926 
     64 N         -78.5129   25.7449  -71.4355 N.am      2 UNK        -0.4687 
     65 C         -79.6698   25.7480  -70.7569 C.2       1 UNK         0.5165 
     66 O         -80.2097   24.7290  -70.3225 O.2       1 UNK        -0.5079 
     67 H67       -77.8339   30.2154  -68.5129 H         1 UNK         0.0900 
     68 H68       -77.6547   30.0858  -70.2615 H         1 UNK         0.0900 
     69 H69       -76.6044   29.1503  -69.1974 H         1 UNK         0.0900 
     70 H70       -79.2891   28.8227  -71.1842 H         1 UNK         0.2959 
     71 H71       -80.9482   27.0507  -69.6439 H         1 UNK         0.1079 
     72 H72       -80.7605   27.4232  -72.6863 H         1 UNK         0.0837 
     73 H73       -81.9822   26.5138  -71.8677 H         1 UNK         0.0837 
     74 H74       -82.0896   31.0671  -72.3638 H         1 UNK         0.0685 
     75 H75       -80.8388   30.6181  -71.2391 H         1 UNK         0.0685 
     76 H76       -82.0489   29.2567  -74.5628 H         1 UNK         0.1434 
     77 H77       -78.0866   29.2845  -76.2337 H         1 UNK         0.1329 
     78 H78       -78.7234   30.6626  -72.2520 H         1 UNK         0.1335 
     79 H79       -76.5704   30.9506  -73.2927 H         1 UNK         0.0680 
     80 H80       -76.3831   30.6928  -75.0085 H         1 UNK         0.0680 
     81 H81       -74.7158   28.0901  -71.8039 H         1 UNK         0.1032 
     82 H82       -75.5490   29.6044  -71.5978 H         1 UNK         0.1032 
     83 H83       -73.8572   30.8106  -72.8843 H         1 UNK         0.0461 
     84 H84       -71.3217   28.6899  -71.7505 H         1 UNK         0.3453 
     85 H85       -71.1649   29.4293  -70.1740 H         1 UNK         0.3453 
     86 H86       -73.1563   28.3081  -73.9905 H         1 UNK         0.2984 
     87 H87       -71.3726   29.5575  -76.3471 H         1 UNK         0.0554 
     88 H88       -69.1630   28.3836  -76.1875 H         1 UNK         0.0847 
     89 H89       -69.2781   28.4140  -74.4280 H         1 UNK         0.0847 
     90 H90       -69.1676   29.9145  -75.3302 H         1 UNK         0.0847 
     91 H91       -72.2398   27.5743  -76.5600 H         1 UNK         0.3141 
     92 H92       -71.7153   24.4632  -75.3495 H         1 UNK         0.0743 
     93 H93       -74.2416   25.8100  -74.2553 H         1 UNK         0.0784 
     94 H94       -74.0852   24.0905  -74.6136 H         1 UNK         0.0784 
     95 H95       -73.1201   24.8146  -73.3409 H         1 UNK         0.0784 
     96 H96       -73.9733   25.7587  -76.7192 H         1 UNK         0.3213 
     97 H97       -72.3210   26.0312  -79.8113 H         1 UNK         0.0855 
     98 H98       -74.3744   23.8289  -79.2458 H         1 UNK         0.0814 
     99 H99       -72.7949   23.5729  -79.9735 H         1 UNK         0.0814 
    100 H100      -74.0028   24.5247  -80.8210 H         1 UNK         0.0814 
    101 H101      -75.0998   26.1810  -79.1318 H         1 UNK         0.3105 
    102 H102      -75.1156   29.1894  -77.3859 H         1 UNK         0.0547 
    103 H103      -75.8231   29.0479  -80.3654 H         1 UNK         0.0837 
    104 H104      -76.4217   30.2370  -79.2075 H         1 UNK         0.0837 
    105 H105      -74.7212   30.2100  -79.6397 H         1 UNK         0.0837 
    106 H106      -77.3323   28.0521  -78.5583 H         1 UNK         0.3020 
    107 H107      -78.4346   26.6557  -75.9590 H         1 UNK         0.1245 
    108 H108      -78.7488   26.1917  -78.9719 H         1 UNK         0.0781 
    109 H109      -80.0163   25.9737  -77.8115 H         1 UNK         0.0781 
    110 H110      -81.5291   29.2700  -77.1794 H         1 UNK         0.0836 
    111 H111      -81.2636   27.6550  -76.5765 H         1 UNK         0.0836 
    112 H112      -78.2206   24.5007  -75.7225 H         1 UNK         0.3022 
    113 H113      -77.6763   21.7878  -77.7281 H         1 UNK         0.0747 
    114 H114      -75.5716   21.0847  -76.5202 H         1 UNK         0.0793 
    115 H115      -75.2535   22.1355  -77.8850 H         1 UNK         0.0793 
    116 H116      -75.1801   22.7847  -76.2541 H         1 UNK         0.0793 
    117 H117      -77.2364   22.2769  -74.8768 H         1 UNK         0.3047 
    118 H118      -80.6242   22.2104  -73.9938 H         1 UNK         0.0822 
    119 H119      -80.0777   20.2259  -72.6118 H         1 UNK         0.0807 
    120 H120      -78.6487   19.8970  -73.5935 H         1 UNK         0.0807 
    121 H121      -80.2554   19.7518  -74.2917 H         1 UNK         0.0807 
    122 H122      -78.3850   22.0511  -72.3153 H         1 UNK         0.2946 
    123 H123      -77.7719   23.8240  -71.1031 H         1 UNK         0.1144 
    124 H124      -75.8514   25.3641  -71.6247 H         1 UNK         0.0793 
    125 H125      -76.4751   25.5945  -73.2581 H         1 UNK         0.0793 
    126 H126      -75.9022   24.0125  -72.7443 H         1 UNK         0.0793 
    127 H127      -78.1580   26.6256  -71.7774 H         1 UNK         0.2896 
@<TRIPOS>BOND
     1    1    2 1    
     2    1   67 1    
     3    1   68 1    
     4    1   69 1    
     5    2    3 2    
     6    2    4 am   BACKBONE|DICT|INTERRES
     7    4    5 1    
     8    4   70 1    
     9    5    6 1    
    10    5   65 1    
    11    5   71 1    
    12    6    7 1    
    13    6   72 1    
    14    6   73 1    
    15    7    8 1    
    16    8    9 1    
    17    8   74 1    
    18    8   75 1    
    19    9   10 ar   
    20    9   14 ar   
    21   10   11 ar   
    22   10   76 1    
    23   11   12 ar   
    24   11   48 1    
    25   12   13 ar   
    26   12   77 1    
    27   13   14 ar   
    28   13   15 1    
    29   14   78 1    
    30   15   16 1    
    31   15   79 1    
    32   15   80 1    
    33   16   17 1    
    34   17   18 1    
    35   17   81 1    
    36   17   82 1    
    37   18   19 1    
    38   18   22 1    
    39   18   83 1    
    40   19   20 am   BACKBONE|DICT|INTERRES
    41   19   21 2    
    42   20   84 1    
    43   20   85 1    
    44   22   23 am   BACKBONE|DICT|INTERRES
    45   22   86 1    
    46   23   24 2    
    47   23   25 1    
    48   25   26 1    
    49   25   27 1    
    50   25   87 1    
    51   26   88 1    
    52   26   89 1    
    53   26   90 1    
    54   27   28 am   BACKBONE|DICT|INTERRES
    55   27   91 1    
    56   28   29 2    
    57   28   30 1    
    58   30   31 1    
    59   30   32 1    
    60   30   92 1    
    61   31   93 1    
    62   31   94 1    
    63   31   95 1    
    64   32   33 am   BACKBONE|DICT|INTERRES
    65   32   96 1    
    66   33   34 2    
    67   33   35 1    
    68   35   36 1    
    69   35   37 1    
    70   35   97 1    
    71   36   98 1    
    72   36   99 1    
    73   36  100 1    
    74   37   38 am   BACKBONE|DICT|INTERRES
    75   37  101 1    
    76   38   39 2    
    77   38   40 1    
    78   40   41 1    
    79   40   42 1    
    80   40  102 1    
    81   41  103 1    
    82   41  104 1    
    83   41  105 1    
    84   42   43 am   BACKBONE|DICT|INTERRES
    85   42  106 1    
    86   43   44 2    
    87   43   45 1    
    88   45   46 1    
    89   45   49 1    
    90   45  107 1    
    91   46   47 1    
    92   46  108 1    
    93   46  109 1    
    94   47   48 1    
    95   48  110 1    
    96   48  111 1    
    97   49   50 am   BACKBONE|DICT|INTERRES
    98   49  112 1    
    99   50   51 2    
   100   50   52 1    
   101   52   53 1    
   102   52   54 1    
   103   52  113 1    
   104   53  114 1    
   105   53  115 1    
   106   53  116 1    
   107   54   55 am   BACKBONE|DICT|INTERRES
   108   54  117 1    
   109   55   56 2    
   110   55   57 1    
   111   57   58 1    
   112   57   59 1    
   113   57  118 1    
   114   58  119 1    
   115   58  120 1    
   116   58  121 1    
   117   59   60 am   BACKBONE|DICT|INTERRES
   118   59  122 1    
   119   60   61 2    
   120   60   62 1    
   121   62   63 1    
   122   62   64 1    
   123   62  123 1    
   124   63  124 1    
   125   63  125 1    
   126   63  126 1    
   127   64   65 am   BACKBONE|DICT|INTERRES
   128   64  127 1    
   129   65   66 2    
@<TRIPOS>SUBSTRUCTURE
     1 UNK         1 GROUP             0       ****    0 ROOT    
