@<TRIPOS>MOLECULE
3R135
127   129    1
SMALL
USER_CHARGES


@<TRIPOS>ATOM
      1 CA        -81.5675   25.8035  -68.2157 C.3       0 UNK        -0.1998 
      2 C         -82.1925   25.9736  -69.5923 C.2       0 UNK         0.4909 
      3 O         -83.3691   25.6573  -69.7745 O.2       0 UNK        -0.5240 
      4 N         -81.4165   26.4813  -70.5577 N.am      1 UNK        -0.4739 
      5 CA        -81.8276   26.6626  -71.9551 C.3       1 UNK         0.0864 
      6 C6        -80.8678   27.6046  -72.7243 C.3       11 UNK        -0.0881 
      7 S7        -80.7397   29.2573  -71.9586 S.3       11 UNK        -0.2682 
      8 C8        -78.9285   29.5178  -71.9400 C.3       11 UNK         0.0289 
      9 C9        -78.2626   29.7519  -73.3008 C.ar      11 UNK        -0.0687 
     10 C10       -78.9734   29.7693  -74.5087 C.ar      11 UNK        -0.0823 
     11 C11       -78.3164   29.9623  -75.7258 C.ar      11 UNK        -0.0830 
     12 C12       -76.9362   30.1767  -75.7376 C.ar      11 UNK        -0.1021 
     13 C13       -76.2108   30.1672  -74.5441 C.ar      11 UNK        -0.0753 
     14 C14       -76.8787   29.9558  -73.3335 C.ar      11 UNK        -0.0933 
     15 C15       -74.7084   30.3996  -74.5692 C.3       11 UNK         0.0166 
     16 S16       -73.7844   28.8683  -74.9067 S.3       11 UNK        -0.2615 
     17 C17       -73.7774   28.0481  -73.2742 C.3       11 UNK        -0.0865 
     18 CA        -72.6992   28.6183  -72.3062 C.3       10 UNK         0.0862 
     19 C         -72.7976   28.0146  -70.8712 C.2       10 UNK         0.5551 
     20 N         -71.6991   27.8698  -70.1402 N.am      10 UNK        -0.7319 
     21 O         -73.8880   27.7103  -70.3942 O.2       10 UNK        -0.5018 
     22 N         -71.3460   28.6394  -72.8952 N.am      10 UNK        -0.4509 
     23 C         -70.5921   27.5782  -73.2137 C.2       10 UNK         0.4899 
     24 O         -70.9132   26.4079  -73.0016 O.2       10 UNK        -0.4839 
     25 CA        -69.2568   27.9123  -73.9088 C.3       9 UNK         0.0222 
     26 CB        -68.3541   26.6773  -74.1226 C.3       9 UNK        -0.1966 
     27 N         -69.4765   28.6443  -75.1654 N.am      9 UNK        -0.4218 
     28 C         -70.1341   28.1984  -76.2461 C.2       9 UNK         0.5020 
     29 O         -70.5445   27.0440  -76.3870 O.2       9 UNK        -0.5274 
     30 CA        -70.3709   29.2123  -77.3709 C.3       8 UNK         0.0270 
     31 CB        -69.2091   29.2125  -78.3784 C.3       8 UNK        -0.1976 
     32 N         -71.6052   28.8257  -78.0430 N.am      8 UNK        -0.4313 
     33 C         -72.5665   29.6436  -78.4764 C.2       8 UNK         0.5041 
     34 O         -72.4524   30.8698  -78.5087 O.2       8 UNK        -0.5577 
     35 CA        -73.9007   29.0072  -78.9142 C.3       7 UNK         0.0284 
     36 CB        -73.9440   28.7828  -80.4383 C.3       7 UNK        -0.1958 
     37 N         -74.2734   27.7937  -78.1678 N.am      7 UNK        -0.4454 
     38 C         -73.7320   26.5661  -78.2026 C.2       7 UNK         0.5089 
     39 O         -72.7966   26.2543  -78.9391 O.2       7 UNK        -0.5125 
     40 CA        -74.2951   25.5163  -77.2240 C.3       6 UNK         0.0408 
     41 CB        -73.2315   25.1040  -76.1936 C.3       6 UNK        -0.1791 
     42 N         -75.4818   25.9834  -76.5043 N.am      6 UNK        -0.4762 
     43 C         -76.7357   25.9315  -76.9691 C.2       6 UNK         0.5007 
     44 O         -77.0430   25.4130  -78.0438 O.2       6 UNK        -0.5032 
     45 CA        -77.8190   26.5438  -76.0539 C.3       5 UNK         0.0783 
     46 C46       -79.0713   27.0463  -76.8222 C.3       11 UNK        -0.0857 
     47 S47       -78.6926   28.4068  -77.9894 S.3       11 UNK        -0.2512 
     48 C48       -79.0987   29.9007  -77.0286 C.3       11 UNK         0.0225 
     49 N         -78.1644   25.5886  -74.9979 N.am      5 UNK        -0.4615 
     50 C         -77.3796   25.3236  -73.9398 C.2       4 UNK         0.5053 
     51 O         -76.3584   25.9632  -73.6876 O.2       4 UNK        -0.5105 
     52 CA        -77.7566   24.1535  -73.0105 C.3       4 UNK         0.0263 
     53 CB        -78.1233   24.6604  -71.6062 C.3       4 UNK        -0.1981 
     54 N         -78.8341   23.3093  -73.5350 N.am      4 UNK        -0.4224 
     55 C         -78.6739   22.4190  -74.5276 C.2       3 UNK         0.4895 
     56 O         -77.5836   22.1665  -75.0414 O.2       3 UNK        -0.5091 
     57 CA        -79.9259   21.6958  -75.0634 C.3       3 UNK         0.0250 
     58 CB        -79.9955   20.2635  -74.5091 C.3       3 UNK        -0.1996 
     59 N         -81.1939   22.3768  -74.7857 N.am      3 UNK        -0.4254 
     60 C         -81.5319   23.6029  -75.2086 C.2       2 UNK         0.5004 
     61 O         -80.8006   24.3119  -75.9014 O.2       2 UNK        -0.5226 
     62 CA        -82.8811   24.1700  -74.7233 C.3       2 UNK         0.0269 
     63 CB        -83.8179   23.1198  -74.0822 C.3       2 UNK        -0.1926 
     64 N         -82.6857   25.3032  -73.8082 N.am      2 UNK        -0.4687 
     65 C         -81.9435   25.3097  -72.6894 C.2       1 UNK         0.5165 
     66 O         -81.3298   24.3235  -72.2698 O.2       1 UNK        -0.5079 
     67 H67       -80.5283   26.1316  -68.1963 H         1 UNK         0.0900 
     68 H68       -81.5973   24.7556  -67.9181 H         1 UNK         0.0900 
     69 H69       -82.1204   26.3840  -67.4778 H         1 UNK         0.0900 
     70 H70       -80.4611   26.7283  -70.3483 H         1 UNK         0.2959 
     71 H71       -82.8214   27.1166  -71.9491 H         1 UNK         0.1079 
     72 H72       -79.8736   27.1627  -72.8081 H         1 UNK         0.0837 
     73 H73       -81.2173   27.7454  -73.7486 H         1 UNK         0.0837 
     74 H74       -78.7250   30.3827  -71.3071 H         1 UNK         0.0685 
     75 H75       -78.4556   28.6636  -71.4528 H         1 UNK         0.0685 
     76 H76       -80.0420   29.6217  -74.5218 H         1 UNK         0.1434 
     77 H77       -76.4248   30.3298  -76.6782 H         1 UNK         0.1329 
     78 H78       -76.3177   29.9504  -72.4089 H         1 UNK         0.1335 
     79 H79       -74.4671   31.1249  -75.3477 H         1 UNK         0.0680 
     80 H80       -74.3714   30.8434  -73.6319 H         1 UNK         0.0680 
     81 H81       -73.6119   26.9809  -73.4290 H         1 UNK         0.1032 
     82 H82       -74.7750   28.1255  -72.8406 H         1 UNK         0.1032 
     83 H83       -72.9430   29.6694  -72.1530 H         1 UNK         0.0461 
     84 H84       -71.7708   27.4918  -69.2088 H         1 UNK         0.3453 
     85 H85       -70.7999   28.1237  -70.5163 H         1 UNK         0.3453 
     86 H86       -70.9860   29.5587  -73.1048 H         1 UNK         0.2984 
     87 H87       -68.7210   28.5920  -73.2443 H         1 UNK         0.0554 
     88 H88       -67.4116   26.9515  -74.5960 H         1 UNK         0.0847 
     89 H89       -68.8330   25.9201  -74.7440 H         1 UNK         0.0847 
     90 H90       -68.1134   26.2045  -73.1698 H         1 UNK         0.0847 
     91 H91       -69.1680   29.6072  -75.1660 H         1 UNK         0.3141 
     92 H92       -70.4819   30.2064  -76.9322 H         1 UNK         0.0743 
     93 H93       -69.0642   28.2276  -78.8247 H         1 UNK         0.0784 
     94 H94       -69.3872   29.9228  -79.1860 H         1 UNK         0.0784 
     95 H95       -68.2724   29.4955  -77.8966 H         1 UNK         0.0784 
     96 H96       -71.7880   27.8257  -78.0372 H         1 UNK         0.3213 
     97 H97       -74.6758   29.7369  -78.6742 H         1 UNK         0.0855 
     98 H98       -73.1641   28.0994  -80.7749 H         1 UNK         0.0814 
     99 H99       -73.7977   29.7232  -80.9711 H         1 UNK         0.0814 
    100 H100      -74.9059   28.3780  -80.7527 H         1 UNK         0.0814 
    101 H101      -74.9976   27.9295  -77.4770 H         1 UNK         0.3105 
    102 H102      -74.5566   24.6327  -77.8097 H         1 UNK         0.0547 
    103 H103      -72.3398   24.7126  -76.6852 H         1 UNK         0.0837 
    104 H104      -72.9140   25.9475  -75.5798 H         1 UNK         0.0837 
    105 H105      -73.6021   24.3251  -75.5273 H         1 UNK         0.0837 
    106 H106      -75.3359   26.3473  -75.5683 H         1 UNK         0.3020 
    107 H107      -77.3721   27.4124  -75.5677 H         1 UNK         0.1245 
    108 H108      -79.8326   27.3854  -76.1185 H         1 UNK         0.0781 
    109 H109      -79.5308   26.2303  -77.3828 H         1 UNK         0.0781 
    110 H110      -80.1738   29.9255  -76.8440 H         1 UNK         0.0836 
    111 H111      -78.8712   30.7826  -77.6290 H         1 UNK         0.0836 
    112 H112      -78.9810   25.0122  -75.1717 H         1 UNK         0.3022 
    113 H113      -76.8628   23.5340  -72.9094 H         1 UNK         0.0747 
    114 H114      -78.3713   23.8364  -70.9371 H         1 UNK         0.0793 
    115 H115      -77.2888   25.2020  -71.1584 H         1 UNK         0.0793 
    116 H116      -78.9720   25.3402  -71.6291 H         1 UNK         0.0793 
    117 H117      -79.7639   23.4724  -73.1575 H         1 UNK         0.3047 
    118 H118      -79.8192   21.6382  -76.1487 H         1 UNK         0.0822 
    119 H119      -80.8181   19.7036  -74.9547 H         1 UNK         0.0807 
    120 H120      -80.1295   20.2561  -73.4266 H         1 UNK         0.0807 
    121 H121      -79.0782   19.7145  -74.7274 H         1 UNK         0.0807 
    122 H122      -81.8432   21.8909  -74.1841 H         1 UNK         0.2946 
    123 H123      -83.3789   24.5597  -75.6131 H         1 UNK         0.1144 
    124 H124      -84.0018   22.2859  -74.7612 H         1 UNK         0.0793 
    125 H125      -83.4160   22.7140  -73.1530 H         1 UNK         0.0793 
    126 H126      -84.7890   23.5578  -73.8507 H         1 UNK         0.0793 
    127 H127      -83.1230   26.1676  -74.0971 H         1 UNK         0.2896 
@<TRIPOS>BOND
     1    1    2 1    
     2    1   67 1    
     3    1   68 1    
     4    1   69 1    
     5    2    3 2    
     6    2    4 am   BACKBONE|DICT|INTERRES
     7    4    5 1    
     8    4   70 1    
     9    5    6 1    
    10    5   65 1    
    11    5   71 1    
    12    6    7 1    
    13    6   72 1    
    14    6   73 1    
    15    7    8 1    
    16    8    9 1    
    17    8   74 1    
    18    8   75 1    
    19    9   10 ar   
    20    9   14 ar   
    21   10   11 ar   
    22   10   76 1    
    23   11   12 ar   
    24   11   48 1    
    25   12   13 ar   
    26   12   77 1    
    27   13   14 ar   
    28   13   15 1    
    29   14   78 1    
    30   15   16 1    
    31   15   79 1    
    32   15   80 1    
    33   16   17 1    
    34   17   18 1    
    35   17   81 1    
    36   17   82 1    
    37   18   19 1    
    38   18   22 1    
    39   18   83 1    
    40   19   20 am   BACKBONE|DICT|INTERRES
    41   19   21 2    
    42   20   84 1    
    43   20   85 1    
    44   22   23 am   BACKBONE|DICT|INTERRES
    45   22   86 1    
    46   23   24 2    
    47   23   25 1    
    48   25   26 1    
    49   25   27 1    
    50   25   87 1    
    51   26   88 1    
    52   26   89 1    
    53   26   90 1    
    54   27   28 am   BACKBONE|DICT|INTERRES
    55   27   91 1    
    56   28   29 2    
    57   28   30 1    
    58   30   31 1    
    59   30   32 1    
    60   30   92 1    
    61   31   93 1    
    62   31   94 1    
    63   31   95 1    
    64   32   33 am   BACKBONE|DICT|INTERRES
    65   32   96 1    
    66   33   34 2    
    67   33   35 1    
    68   35   36 1    
    69   35   37 1    
    70   35   97 1    
    71   36   98 1    
    72   36   99 1    
    73   36  100 1    
    74   37   38 am   BACKBONE|DICT|INTERRES
    75   37  101 1    
    76   38   39 2    
    77   38   40 1    
    78   40   41 1    
    79   40   42 1    
    80   40  102 1    
    81   41  103 1    
    82   41  104 1    
    83   41  105 1    
    84   42   43 am   BACKBONE|DICT|INTERRES
    85   42  106 1    
    86   43   44 2    
    87   43   45 1    
    88   45   46 1    
    89   45   49 1    
    90   45  107 1    
    91   46   47 1    
    92   46  108 1    
    93   46  109 1    
    94   47   48 1    
    95   48  110 1    
    96   48  111 1    
    97   49   50 am   BACKBONE|DICT|INTERRES
    98   49  112 1    
    99   50   51 2    
   100   50   52 1    
   101   52   53 1    
   102   52   54 1    
   103   52  113 1    
   104   53  114 1    
   105   53  115 1    
   106   53  116 1    
   107   54   55 am   BACKBONE|DICT|INTERRES
   108   54  117 1    
   109   55   56 2    
   110   55   57 1    
   111   57   58 1    
   112   57   59 1    
   113   57  118 1    
   114   58  119 1    
   115   58  120 1    
   116   58  121 1    
   117   59   60 am   BACKBONE|DICT|INTERRES
   118   59  122 1    
   119   60   61 2    
   120   60   62 1    
   121   62   63 1    
   122   62   64 1    
   123   62  123 1    
   124   63  124 1    
   125   63  125 1    
   126   63  126 1    
   127   64   65 am   BACKBONE|DICT|INTERRES
   128   64  127 1    
   129   65   66 2    
@<TRIPOS>SUBSTRUCTURE
     1 UNK         1 GROUP             0       ****    0 ROOT    
