@<TRIPOS>MOLECULE
3R135
127   129    1
SMALL
USER_CHARGES


@<TRIPOS>ATOM
      1 CA        -84.7445   25.0700  -68.7428 C.3       0 UNK        -0.1998 
      2 C         -84.1190   25.6064  -70.0216 C.2       0 UNK         0.4909 
      3 O         -84.8275   26.1602  -70.8625 O.2       0 UNK        -0.5240 
      4 N         -82.7960   25.4519  -70.1695 N.am      1 UNK        -0.4739 
      5 CA        -82.0258   25.8656  -71.3485 C.3       1 UNK         0.0864 
      6 C6        -80.5061   25.8490  -71.0399 C.3       11 UNK        -0.0881 
      7 S7        -79.4663   26.5752  -72.3509 S.3       11 UNK        -0.2682 
      8 C8        -79.3118   28.2912  -71.7714 C.3       11 UNK         0.0289 
      9 C9        -78.3580   29.0753  -72.6580 C.ar      11 UNK        -0.0687 
     10 C10       -78.8331   29.7620  -73.7793 C.ar      11 UNK        -0.0823 
     11 C11       -77.9527   30.4729  -74.6017 C.ar      11 UNK        -0.0830 
     12 C12       -76.5879   30.4926  -74.2957 C.ar      11 UNK        -0.1021 
     13 C13       -76.1035   29.8058  -73.1789 C.ar      11 UNK        -0.0753 
     14 C14       -76.9933   29.1052  -72.3602 C.ar      11 UNK        -0.0933 
     15 C15       -74.6153   29.7826  -72.8764 C.3       11 UNK         0.0166 
     16 S16       -74.0593   31.3142  -72.0742 S.3       11 UNK        -0.2615 
     17 C17       -72.5620   30.7395  -71.1985 C.3       11 UNK        -0.0865 
     18 CA        -71.3034   30.6818  -72.1048 C.3       10 UNK         0.0862 
     19 C         -69.9991   30.5978  -71.2583 C.2       10 UNK         0.5551 
     20 N         -69.1806   29.5605  -71.3914 N.am      10 UNK        -0.7319 
     21 O         -69.7185   31.5000  -70.4729 O.2       10 UNK        -0.5018 
     22 N         -71.4154   29.6146  -73.1132 N.am      10 UNK        -0.4509 
     23 C         -70.9101   29.6655  -74.3484 C.2       10 UNK         0.4899 
     24 O         -70.3320   30.6520  -74.8057 O.2       10 UNK        -0.4839 
     25 CA        -71.0606   28.4207  -75.2439 C.3       9 UNK         0.0222 
     26 CB        -69.7592   27.5962  -75.2553 C.3       9 UNK        -0.1966 
     27 N         -72.2216   27.5530  -74.9897 N.am      9 UNK        -0.4218 
     28 C         -72.5025   26.7825  -73.9274 C.2       9 UNK         0.5020 
     29 O         -71.8845   26.8304  -72.8633 O.2       9 UNK        -0.5274 
     30 CA        -73.6551   25.7702  -74.0833 C.3       8 UNK         0.0270 
     31 CB        -75.0043   26.3772  -73.6731 C.3       8 UNK        -0.1976 
     32 N         -73.7663   25.2393  -75.4431 N.am      8 UNK        -0.4313 
     33 C         -72.8678   24.4356  -76.0298 C.2       8 UNK         0.5041 
     34 O         -71.8664   23.9920  -75.4666 O.2       8 UNK        -0.5577 
     35 CA        -73.1228   24.0847  -77.5028 C.3       7 UNK         0.0284 
     36 CB        -74.1545   22.9507  -77.6279 C.3       7 UNK        -0.1958 
     37 N         -73.5729   25.2573  -78.2560 N.am      7 UNK        -0.4454 
     38 C         -72.7554   26.2131  -78.7208 C.2       7 UNK         0.5089 
     39 O         -71.5289   26.1719  -78.6247 O.2       7 UNK        -0.5125 
     40 CA        -73.4102   27.4248  -79.4099 C.3       6 UNK         0.0408 
     41 CB        -73.4793   27.2026  -80.9289 C.3       6 UNK        -0.1791 
     42 N         -74.7512   27.7314  -78.9045 N.am      6 UNK        -0.4762 
     43 C         -75.0110   28.2263  -77.6851 C.2       6 UNK         0.5007 
     44 O         -74.1414   28.4932  -76.8573 O.2       6 UNK        -0.5032 
     45 CA        -76.4961   28.3991  -77.3091 C.3       5 UNK         0.0783 
     46 C46       -77.0073   29.7873  -77.7645 C.3       11 UNK        -0.0857 
     47 S47       -78.7250   30.1122  -77.2412 S.3       11 UNK        -0.2512 
     48 C48       -78.4820   31.2207  -75.8165 C.3       11 UNK         0.0225 
     49 N         -77.3372   27.2998  -77.8039 N.am      5 UNK        -0.4615 
     50 C         -77.1712   26.0125  -77.4793 C.2       4 UNK         0.5053 
     51 O         -76.2343   25.5950  -76.7942 O.2       4 UNK        -0.5105 
     52 CA        -78.1792   25.0116  -78.0615 C.3       4 UNK         0.0263 
     53 CB        -77.6305   24.3955  -79.3587 C.3       4 UNK        -0.1981 
     54 N         -78.4434   23.9470  -77.0930 N.am      4 UNK        -0.4224 
     55 C         -79.1823   24.1148  -75.9895 C.2       3 UNK         0.4895 
     56 O         -79.8391   25.1313  -75.7543 O.2       3 UNK        -0.5091 
     57 CA        -79.1293   22.9724  -74.9612 C.3       3 UNK         0.0250 
     58 CB        -77.8785   23.1162  -74.0762 C.3       3 UNK        -0.1996 
     59 N         -80.3151   22.9576  -74.1037 N.am      3 UNK        -0.4254 
     60 C         -81.5343   22.5529  -74.4856 C.2       2 UNK         0.5004 
     61 O         -81.7750   22.0565  -75.5873 O.2       2 UNK        -0.5226 
     62 CA        -82.6810   22.7076  -73.4667 C.3       2 UNK         0.0269 
     63 CB        -83.0150   21.3524  -72.8213 C.3       2 UNK        -0.1926 
     64 N         -82.4011   23.6835  -72.4072 N.am      2 UNK        -0.4687 
     65 C         -82.3889   25.0134  -72.5845 C.2       1 UNK         0.5165 
     66 O         -82.6749   25.5631  -73.6488 O.2       1 UNK        -0.5079 
     67 H67       -85.2354   25.8763  -68.1984 H         1 UNK         0.0900 
     68 H68       -84.0034   24.6183  -68.0835 H         1 UNK         0.0900 
     69 H69       -85.4926   24.3140  -68.9801 H         1 UNK         0.0900 
     70 H70       -82.2708   24.9976  -69.4356 H         1 UNK         0.2959 
     71 H71       -82.3098   26.8958  -71.5764 H         1 UNK         0.1079 
     72 H72       -80.3120   26.3863  -70.1101 H         1 UNK         0.0837 
     73 H73       -80.1610   24.8288  -70.8624 H         1 UNK         0.0837 
     74 H74       -78.9528   28.3002  -70.7410 H         1 UNK         0.0685 
     75 H75       -80.2958   28.7625  -71.7629 H         1 UNK         0.0685 
     76 H76       -79.8876   29.7347  -74.0182 H         1 UNK         0.1434 
     77 H77       -75.8982   31.0343  -74.9286 H         1 UNK         0.1329 
     78 H78       -76.6225   28.5666  -71.4989 H         1 UNK         0.1335 
     79 H79       -74.3751   28.9326  -72.2376 H         1 UNK         0.0680 
     80 H80       -74.0633   29.6401  -73.8061 H         1 UNK         0.0680 
     81 H81       -72.7491   29.7722  -70.7290 H         1 UNK         0.1032 
     82 H82       -72.4053   31.4386  -70.3746 H         1 UNK         0.1032 
     83 H83       -71.2422   31.6392  -72.6259 H         1 UNK         0.0461 
     84 H84       -68.3368   29.5215  -70.8415 H         1 UNK         0.3453 
     85 H85       -69.4048   28.8140  -72.0295 H         1 UNK         0.3453 
     86 H86       -71.7848   28.7219  -72.7998 H         1 UNK         0.2984 
     87 H87       -71.2125   28.7981  -76.2565 H         1 UNK         0.0554 
     88 H88       -69.8179   26.7787  -75.9746 H         1 UNK         0.0847 
     89 H89       -69.5401   27.1665  -74.2775 H         1 UNK         0.0847 
     90 H90       -68.9059   28.2146  -75.5373 H         1 UNK         0.0847 
     91 H91       -72.8945   27.5449  -75.7521 H         1 UNK         0.3141 
     92 H92       -73.4457   24.9310  -73.4166 H         1 UNK         0.0743 
     93 H93       -75.2650   27.2357  -74.2924 H         1 UNK         0.0784 
     94 H94       -75.8113   25.6498  -73.7641 H         1 UNK         0.0784 
     95 H95       -74.9853   26.7034  -72.6334 H         1 UNK         0.0784 
     96 H96       -74.6045   25.4896  -75.9657 H         1 UNK         0.3213 
     97 H97       -72.1822   23.7310  -77.9314 H         1 UNK         0.0855 
     98 H98       -75.1165   23.2201  -77.1920 H         1 UNK         0.0814 
     99 H99       -73.8068   22.0544  -77.1126 H         1 UNK         0.0814 
    100 H100      -74.3210   22.6793  -78.6704 H         1 UNK         0.0814 
    101 H101      -74.5708   25.4017  -78.3219 H         1 UNK         0.3105 
    102 H102      -72.7731   28.2920  -79.2226 H         1 UNK         0.0547 
    103 H103      -72.4887   26.9989  -81.3382 H         1 UNK         0.0837 
    104 H104      -74.1175   26.3565  -81.1866 H         1 UNK         0.0837 
    105 H105      -73.8639   28.0838  -81.4427 H         1 UNK         0.0837 
    106 H106      -75.5291   27.5363  -79.5186 H         1 UNK         0.3020 
    107 H107      -76.5449   28.3611  -76.2185 H         1 UNK         0.1245 
    108 H108      -76.9698   29.8688  -78.8525 H         1 UNK         0.0781 
    109 H109      -76.3615   30.5809  -77.3839 H         1 UNK         0.0781 
    110 H110      -79.4376   31.6848  -75.5678 H         1 UNK         0.0836 
    111 H111      -77.8146   32.0389  -76.0916 H         1 UNK         0.0836 
    112 H112      -78.1325   27.5702  -78.3645 H         1 UNK         0.3022 
    113 H113      -79.1150   25.5292  -78.2840 H         1 UNK         0.0747 
    114 H114      -78.3392   23.6889  -79.7913 H         1 UNK         0.0793 
    115 H115      -77.4446   25.1646  -80.1095 H         1 UNK         0.0793 
    116 H116      -76.6908   23.8673  -79.1935 H         1 UNK         0.0793 
    117 H117      -77.9014   23.1016  -77.1936 H         1 UNK         0.3047 
    118 H118      -79.0766   22.0215  -75.4961 H         1 UNK         0.0822 
    119 H119      -76.9675   23.1158  -74.6767 H         1 UNK         0.0807 
    120 H120      -77.7971   22.2942  -73.3649 H         1 UNK         0.0807 
    121 H121      -77.8913   24.0497  -73.5117 H         1 UNK         0.0807 
    122 H122      -80.2240   23.3956  -73.1998 H         1 UNK         0.2946 
    123 H123      -83.5582   23.0476  -74.0224 H         1 UNK         0.1144 
    124 H124      -83.2610   20.6086  -73.5805 H         1 UNK         0.0793 
    125 H125      -83.8757   21.4302  -72.1568 H         1 UNK         0.0793 
    126 H126      -82.1764   20.9622  -72.2431 H         1 UNK         0.0793 
    127 H127      -82.1919   23.3155  -71.4903 H         1 UNK         0.2896 
@<TRIPOS>BOND
     1    1    2 1    
     2    1   67 1    
     3    1   68 1    
     4    1   69 1    
     5    2    3 2    
     6    2    4 am   BACKBONE|DICT|INTERRES
     7    4    5 1    
     8    4   70 1    
     9    5    6 1    
    10    5   65 1    
    11    5   71 1    
    12    6    7 1    
    13    6   72 1    
    14    6   73 1    
    15    7    8 1    
    16    8    9 1    
    17    8   74 1    
    18    8   75 1    
    19    9   10 ar   
    20    9   14 ar   
    21   10   11 ar   
    22   10   76 1    
    23   11   12 ar   
    24   11   48 1    
    25   12   13 ar   
    26   12   77 1    
    27   13   14 ar   
    28   13   15 1    
    29   14   78 1    
    30   15   16 1    
    31   15   79 1    
    32   15   80 1    
    33   16   17 1    
    34   17   18 1    
    35   17   81 1    
    36   17   82 1    
    37   18   19 1    
    38   18   22 1    
    39   18   83 1    
    40   19   20 am   BACKBONE|DICT|INTERRES
    41   19   21 2    
    42   20   84 1    
    43   20   85 1    
    44   22   23 am   BACKBONE|DICT|INTERRES
    45   22   86 1    
    46   23   24 2    
    47   23   25 1    
    48   25   26 1    
    49   25   27 1    
    50   25   87 1    
    51   26   88 1    
    52   26   89 1    
    53   26   90 1    
    54   27   28 am   BACKBONE|DICT|INTERRES
    55   27   91 1    
    56   28   29 2    
    57   28   30 1    
    58   30   31 1    
    59   30   32 1    
    60   30   92 1    
    61   31   93 1    
    62   31   94 1    
    63   31   95 1    
    64   32   33 am   BACKBONE|DICT|INTERRES
    65   32   96 1    
    66   33   34 2    
    67   33   35 1    
    68   35   36 1    
    69   35   37 1    
    70   35   97 1    
    71   36   98 1    
    72   36   99 1    
    73   36  100 1    
    74   37   38 am   BACKBONE|DICT|INTERRES
    75   37  101 1    
    76   38   39 2    
    77   38   40 1    
    78   40   41 1    
    79   40   42 1    
    80   40  102 1    
    81   41  103 1    
    82   41  104 1    
    83   41  105 1    
    84   42   43 am   BACKBONE|DICT|INTERRES
    85   42  106 1    
    86   43   44 2    
    87   43   45 1    
    88   45   46 1    
    89   45   49 1    
    90   45  107 1    
    91   46   47 1    
    92   46  108 1    
    93   46  109 1    
    94   47   48 1    
    95   48  110 1    
    96   48  111 1    
    97   49   50 am   BACKBONE|DICT|INTERRES
    98   49  112 1    
    99   50   51 2    
   100   50   52 1    
   101   52   53 1    
   102   52   54 1    
   103   52  113 1    
   104   53  114 1    
   105   53  115 1    
   106   53  116 1    
   107   54   55 am   BACKBONE|DICT|INTERRES
   108   54  117 1    
   109   55   56 2    
   110   55   57 1    
   111   57   58 1    
   112   57   59 1    
   113   57  118 1    
   114   58  119 1    
   115   58  120 1    
   116   58  121 1    
   117   59   60 am   BACKBONE|DICT|INTERRES
   118   59  122 1    
   119   60   61 2    
   120   60   62 1    
   121   62   63 1    
   122   62   64 1    
   123   62  123 1    
   124   63  124 1    
   125   63  125 1    
   126   63  126 1    
   127   64   65 am   BACKBONE|DICT|INTERRES
   128   64  127 1    
   129   65   66 2    
@<TRIPOS>SUBSTRUCTURE
     1 UNK         1 GROUP             0       ****    0 ROOT    
