@<TRIPOS>MOLECULE
3R135
127   129    1
SMALL
USER_CHARGES


@<TRIPOS>ATOM
      1 CA        -82.3624   22.8107  -72.0509 C.3       0 UNK        -0.1998 
      2 C         -82.3030   24.1232  -72.8184 C.2       0 UNK         0.4909 
      3 O         -82.2905   24.1161  -74.0511 O.2       0 UNK        -0.5240 
      4 N         -82.2781   25.2514  -72.0969 N.am      1 UNK        -0.4739 
      5 CA        -82.2015   26.6032  -72.6593 C.3       1 UNK         0.0864 
      6 C6        -82.5857   27.6975  -71.6282 C.3       11 UNK        -0.0881 
      7 S7        -81.6583   27.6465  -70.0554 S.3       11 UNK        -0.2682 
      8 C8        -80.6811   29.1927  -70.1027 C.3       11 UNK         0.0289 
      9 C9        -79.2645   29.0169  -70.6455 C.ar      11 UNK        -0.0687 
     10 C10       -78.4813   27.9258  -70.2458 C.ar      11 UNK        -0.0823 
     11 C11       -77.1651   27.7934  -70.6917 C.ar      11 UNK        -0.0830 
     12 C12       -76.6166   28.7858  -71.5022 C.ar      11 UNK        -0.1021 
     13 C13       -77.3888   29.8572  -71.9454 C.ar      11 UNK        -0.0753 
     14 C14       -78.7144   29.9749  -71.5102 C.ar      11 UNK        -0.0933 
     15 C15       -76.7650   30.8430  -72.9217 C.3       11 UNK         0.0166 
     16 S16       -76.5056   30.0373  -74.5350 S.3       11 UNK        -0.2615 
     17 C17       -75.1658   31.0161  -75.2845 C.3       11 UNK        -0.0865 
     18 CA        -74.0140   30.1020  -75.8068 C.3       10 UNK         0.0862 
     19 C         -73.0405   30.8476  -76.7718 C.2       10 UNK         0.5551 
     20 N         -73.5649   31.5199  -77.7887 N.am      10 UNK        -0.7319 
     21 O         -71.8186   30.8066  -76.6429 O.2       10 UNK        -0.5018 
     22 N         -73.3367   29.3445  -74.7366 N.am      10 UNK        -0.4509 
     23 C         -72.6078   29.8621  -73.7374 C.2       10 UNK         0.4899 
     24 O         -72.5008   31.0700  -73.5201 O.2       10 UNK        -0.4839 
     25 CA        -71.8588   28.8869  -72.8072 C.3       9 UNK         0.0222 
     26 CB        -72.5360   28.8015  -71.4292 C.3       9 UNK        -0.1966 
     27 N         -71.6877   27.5311  -73.3368 N.am      9 UNK        -0.4218 
     28 C         -70.8523   27.1792  -74.3236 C.2       9 UNK         0.5020 
     29 O         -70.1511   27.9770  -74.9465 O.2       9 UNK        -0.5274 
     30 CA        -70.7576   25.6829  -74.6600 C.3       8 UNK         0.0270 
     31 CB        -71.3516   24.7522  -73.5799 C.3       8 UNK        -0.1976 
     32 N         -71.4447   25.4374  -75.9239 N.am      8 UNK        -0.4313 
     33 C         -70.8961   24.8993  -77.0205 C.2       8 UNK         0.5041 
     34 O         -69.7072   24.5847  -77.1012 O.2       8 UNK        -0.5577 
     35 CA        -71.8163   24.6225  -78.2273 C.3       7 UNK         0.0284 
     36 CB        -71.8159   23.1234  -78.5765 C.3       7 UNK        -0.1958 
     37 N         -73.2019   25.0459  -78.0101 N.am      7 UNK        -0.4454 
     38 C         -73.6842   26.2651  -78.2805 C.2       7 UNK         0.5089 
     39 O         -73.0206   27.1726  -78.7812 O.2       7 UNK        -0.5125 
     40 CA        -75.1559   26.5192  -77.9065 C.3       6 UNK         0.0408 
     41 CB        -76.0693   26.1633  -79.0900 C.3       6 UNK        -0.1791 
     42 N         -75.6187   25.8111  -76.7047 N.am      6 UNK        -0.4762 
     43 C         -75.0685   25.8900  -75.4828 C.2       6 UNK         0.5007 
     44 O         -74.0307   26.5151  -75.2557 O.2       6 UNK        -0.5032 
     45 CA        -75.7623   25.1564  -74.3136 C.3       5 UNK         0.0783 
     46 C46       -75.9324   26.1024  -73.1054 C.3       11 UNK        -0.0857 
     47 S47       -76.5410   25.2560  -71.6053 S.3       11 UNK        -0.2512 
     48 C48       -76.3428   26.5614  -70.3454 C.3       11 UNK         0.0225 
     49 N         -77.0444   24.5602  -74.6994 N.am      5 UNK        -0.4615 
     50 C         -77.1978   23.3238  -75.1843 C.2       4 UNK         0.5053 
     51 O         -76.2631   22.5602  -75.4250 O.2       4 UNK        -0.5105 
     52 CA        -78.6410   22.8697  -75.4526 C.3       4 UNK         0.0263 
     53 CB        -79.2727   22.3158  -74.1672 C.3       4 UNK        -0.1981 
     54 N         -79.4809   23.9455  -75.9869 N.am      4 UNK        -0.4224 
     55 C         -79.3613   24.4375  -77.2289 C.2       3 UNK         0.4895 
     56 O         -78.5471   24.0227  -78.0537 O.2       3 UNK        -0.5091 
     57 CA        -80.2928   25.5982  -77.6128 C.3       3 UNK         0.0250 
     58 CB        -81.6911   25.0749  -77.9790 C.3       3 UNK        -0.1996 
     59 N         -80.4080   26.6066  -76.5582 N.am      3 UNK        -0.4254 
     60 C         -79.4096   27.4027  -76.1464 C.2       2 UNK         0.5004 
     61 O         -78.2868   27.3979  -76.6442 O.2       2 UNK        -0.5226 
     62 CA        -79.7074   28.3657  -74.9838 C.3       2 UNK         0.0269 
     63 CB        -79.9511   29.7901  -75.5087 C.3       2 UNK        -0.1926 
     64 N         -80.8504   27.9580  -74.1669 N.am      2 UNK        -0.4687 
     65 C         -80.8564   26.8888  -73.3606 C.2       1 UNK         0.5165 
     66 O         -79.8816   26.1474  -73.2048 O.2       1 UNK        -0.5079 
     67 H67       -82.6083   22.9676  -71.0007 H         1 UNK         0.0900 
     68 H68       -83.1223   22.1582  -72.4802 H         1 UNK         0.0900 
     69 H69       -81.4033   22.2975  -72.1017 H         1 UNK         0.0900 
     70 H70       -82.2447   25.2041  -71.0884 H         1 UNK         0.2959 
     71 H71       -82.9555   26.6411  -73.4493 H         1 UNK         0.1079 
     72 H72       -83.6398   27.5783  -71.3726 H         1 UNK         0.0837 
     73 H73       -82.5197   28.6927  -72.0703 H         1 UNK         0.0837 
     74 H74       -81.2218   29.9587  -70.6600 H         1 UNK         0.0685 
     75 H75       -80.5990   29.5684  -69.0821 H         1 UNK         0.0685 
     76 H76       -78.8999   27.1684  -69.5979 H         1 UNK         0.1434 
     77 H77       -75.6018   28.6936  -71.8572 H         1 UNK         0.1329 
     78 H78       -79.3133   30.8126  -71.8399 H         1 UNK         0.1335 
     79 H79       -77.3945   31.7246  -73.0508 H         1 UNK         0.0680 
     80 H80       -75.8112   31.1872  -72.5186 H         1 UNK         0.0680 
     81 H81       -75.6194   31.5861  -76.0958 H         1 UNK         0.1032 
     82 H82       -74.7888   31.7574  -74.5793 H         1 UNK         0.1032 
     83 H83       -74.4666   29.3312  -76.4297 H         1 UNK         0.0461 
     84 H84       -74.5595   31.5449  -77.9475 H         1 UNK         0.3453 
     85 H85       -72.9461   31.9953  -78.4269 H         1 UNK         0.3453 
     86 H86       -73.3783   28.3355  -74.8355 H         1 UNK         0.2984 
     87 H87       -70.8632   29.3103  -72.6579 H         1 UNK         0.0554 
     88 H88       -72.7645   29.7932  -71.0354 H         1 UNK         0.0847 
     89 H89       -71.8877   28.3108  -70.7030 H         1 UNK         0.0847 
     90 H90       -73.4677   28.2409  -71.4708 H         1 UNK         0.0847 
     91 H91       -72.2322   26.8021  -72.9006 H         1 UNK         0.3141 
     92 H92       -69.6934   25.4545  -74.7480 H         1 UNK         0.0743 
     93 H93       -72.4299   24.8748  -73.4719 H         1 UNK         0.0784 
     94 H94       -71.1686   23.7068  -73.8299 H         1 UNK         0.0784 
     95 H95       -70.8912   24.9293  -72.6068 H         1 UNK         0.0784 
     96 H96       -72.4118   25.7476  -75.9572 H         1 UNK         0.3213 
     97 H97       -71.4016   25.1677  -79.0782 H         1 UNK         0.0855 
     98 H98       -72.1949   22.5167  -77.7531 H         1 UNK         0.0814 
     99 H99       -70.8077   22.7728  -78.8017 H         1 UNK         0.0814 
    100 H100      -72.4289   22.9200  -79.4547 H         1 UNK         0.0814 
    101 H101      -73.8272   24.3704  -77.5934 H         1 UNK         0.3105 
    102 H102      -75.2652   27.5865  -77.7107 H         1 UNK         0.0547 
    103 H103      -75.7556   26.6807  -79.9976 H         1 UNK         0.0837 
    104 H104      -76.0585   25.0935  -79.3019 H         1 UNK         0.0837 
    105 H105      -77.1017   26.4541  -78.8961 H         1 UNK         0.0837 
    106 H106      -76.4903   25.3070  -76.7934 H         1 UNK         0.3020 
    107 H107      -75.0780   24.3593  -74.0139 H         1 UNK         0.1245 
    108 H108      -76.6324   26.8970  -73.3696 H         1 UNK         0.0781 
    109 H109      -74.9865   26.5837  -72.8509 H         1 UNK         0.0781 
    110 H110      -75.2875   26.8214  -70.2511 H         1 UNK         0.0836 
    111 H111      -76.6479   26.1678  -69.3747 H         1 UNK         0.0836 
    112 H112      -77.8688   25.1137  -74.5071 H         1 UNK         0.3022 
    113 H113      -78.6060   22.0640  -76.1892 H         1 UNK         0.0747 
    114 H114      -80.2740   21.9281  -74.3554 H         1 UNK         0.0793 
    115 H115      -78.6784   21.4964  -73.7604 H         1 UNK         0.0793 
    116 H116      -79.3458   23.0822  -73.3939 H         1 UNK         0.0793 
    117 H117      -80.1831   24.3320  -75.3685 H         1 UNK         0.3047 
    118 H118      -79.8684   26.0841  -78.4943 H         1 UNK         0.0822 
    119 H119      -82.3336   25.8783  -78.3397 H         1 UNK         0.0807 
    120 H120      -82.1853   24.6063  -77.1264 H         1 UNK         0.0807 
    121 H121      -81.6323   24.3285  -78.7725 H         1 UNK         0.0807 
    122 H122      -81.3006   26.6828  -76.0936 H         1 UNK         0.2946 
    123 H123      -78.8251   28.3724  -74.3403 H         1 UNK         0.1144 
    124 H124      -80.8567   29.8512  -76.1130 H         1 UNK         0.0793 
    125 H125      -79.1209   30.1228  -76.1334 H         1 UNK         0.0793 
    126 H126      -80.0400   30.5028  -74.6886 H         1 UNK         0.0793 
    127 H127      -81.6842   28.5222  -74.2474 H         1 UNK         0.2896 
@<TRIPOS>BOND
     1    1    2 1    
     2    1   67 1    
     3    1   68 1    
     4    1   69 1    
     5    2    3 2    
     6    2    4 am   BACKBONE|DICT|INTERRES
     7    4    5 1    
     8    4   70 1    
     9    5    6 1    
    10    5   65 1    
    11    5   71 1    
    12    6    7 1    
    13    6   72 1    
    14    6   73 1    
    15    7    8 1    
    16    8    9 1    
    17    8   74 1    
    18    8   75 1    
    19    9   10 ar   
    20    9   14 ar   
    21   10   11 ar   
    22   10   76 1    
    23   11   12 ar   
    24   11   48 1    
    25   12   13 ar   
    26   12   77 1    
    27   13   14 ar   
    28   13   15 1    
    29   14   78 1    
    30   15   16 1    
    31   15   79 1    
    32   15   80 1    
    33   16   17 1    
    34   17   18 1    
    35   17   81 1    
    36   17   82 1    
    37   18   19 1    
    38   18   22 1    
    39   18   83 1    
    40   19   20 am   BACKBONE|DICT|INTERRES
    41   19   21 2    
    42   20   84 1    
    43   20   85 1    
    44   22   23 am   BACKBONE|DICT|INTERRES
    45   22   86 1    
    46   23   24 2    
    47   23   25 1    
    48   25   26 1    
    49   25   27 1    
    50   25   87 1    
    51   26   88 1    
    52   26   89 1    
    53   26   90 1    
    54   27   28 am   BACKBONE|DICT|INTERRES
    55   27   91 1    
    56   28   29 2    
    57   28   30 1    
    58   30   31 1    
    59   30   32 1    
    60   30   92 1    
    61   31   93 1    
    62   31   94 1    
    63   31   95 1    
    64   32   33 am   BACKBONE|DICT|INTERRES
    65   32   96 1    
    66   33   34 2    
    67   33   35 1    
    68   35   36 1    
    69   35   37 1    
    70   35   97 1    
    71   36   98 1    
    72   36   99 1    
    73   36  100 1    
    74   37   38 am   BACKBONE|DICT|INTERRES
    75   37  101 1    
    76   38   39 2    
    77   38   40 1    
    78   40   41 1    
    79   40   42 1    
    80   40  102 1    
    81   41  103 1    
    82   41  104 1    
    83   41  105 1    
    84   42   43 am   BACKBONE|DICT|INTERRES
    85   42  106 1    
    86   43   44 2    
    87   43   45 1    
    88   45   46 1    
    89   45   49 1    
    90   45  107 1    
    91   46   47 1    
    92   46  108 1    
    93   46  109 1    
    94   47   48 1    
    95   48  110 1    
    96   48  111 1    
    97   49   50 am   BACKBONE|DICT|INTERRES
    98   49  112 1    
    99   50   51 2    
   100   50   52 1    
   101   52   53 1    
   102   52   54 1    
   103   52  113 1    
   104   53  114 1    
   105   53  115 1    
   106   53  116 1    
   107   54   55 am   BACKBONE|DICT|INTERRES
   108   54  117 1    
   109   55   56 2    
   110   55   57 1    
   111   57   58 1    
   112   57   59 1    
   113   57  118 1    
   114   58  119 1    
   115   58  120 1    
   116   58  121 1    
   117   59   60 am   BACKBONE|DICT|INTERRES
   118   59  122 1    
   119   60   61 2    
   120   60   62 1    
   121   62   63 1    
   122   62   64 1    
   123   62  123 1    
   124   63  124 1    
   125   63  125 1    
   126   63  126 1    
   127   64   65 am   BACKBONE|DICT|INTERRES
   128   64  127 1    
   129   65   66 2    
@<TRIPOS>SUBSTRUCTURE
     1 UNK         1 GROUP             0       ****    0 ROOT    
