@<TRIPOS>MOLECULE
3R135
127   129    1
SMALL
USER_CHARGES


@<TRIPOS>ATOM
      1 CA        -84.9696   29.5644  -75.9038 C.3       0 UNK        -0.1998 
      2 C         -83.7839   28.6842  -75.5393 C.2       0 UNK         0.4909 
      3 O         -83.9802   27.5755  -75.0395 O.2       0 UNK        -0.5240 
      4 N         -82.5598   29.1673  -75.7980 N.am      1 UNK        -0.4739 
      5 CA        -81.2542   28.5380  -75.5309 C.3       1 UNK         0.0864 
      6 C6        -81.0053   28.2041  -74.0330 C.3       11 UNK        -0.0881 
      7 S7        -80.9370   29.7192  -73.0230 S.3       11 UNK        -0.2682 
      8 C8        -80.5874   29.0481  -71.3652 C.3       11 UNK         0.0289 
      9 C9        -79.1159   28.7114  -71.1432 C.ar      11 UNK        -0.0687 
     10 C10       -78.7444   27.4390  -70.6953 C.ar      11 UNK        -0.0823 
     11 C11       -77.4072   27.1485  -70.4023 C.ar      11 UNK        -0.0830 
     12 C12       -76.4312   28.1293  -70.5945 C.ar      11 UNK        -0.1021 
     13 C13       -76.7883   29.4054  -71.0388 C.ar      11 UNK        -0.0753 
     14 C14       -78.1308   29.6923  -71.3063 C.ar      11 UNK        -0.0933 
     15 C15       -75.7271   30.4836  -71.1858 C.3       11 UNK         0.0166 
     16 S16       -75.2634   30.7221  -72.9249 S.3       11 UNK        -0.2615 
     17 C17       -73.7017   31.6519  -72.7432 C.3       11 UNK        -0.0865 
     18 CA        -72.4356   30.8101  -73.0567 C.3       10 UNK         0.0862 
     19 C         -72.0771   29.8227  -71.9095 C.2       10 UNK         0.5551 
     20 N         -72.1267   28.5124  -72.1059 N.am      10 UNK        -0.7319 
     21 O         -71.7299   30.2627  -70.8163 O.2       10 UNK        -0.5018 
     22 N         -72.4974   30.2314  -74.4077 N.am      10 UNK        -0.4509 
     23 C         -71.4348   29.9345  -75.1634 C.2       10 UNK         0.4899 
     24 O         -70.2673   30.0222  -74.7796 O.2       10 UNK        -0.4839 
     25 CA        -71.7494   29.5274  -76.6108 C.3       9 UNK         0.0222 
     26 CB        -70.7283   30.0869  -77.6249 C.3       9 UNK        -0.1966 
     27 N         -71.9359   28.0819  -76.7527 N.am      9 UNK        -0.4218 
     28 C         -71.0161   27.1050  -76.7038 C.2       9 UNK         0.5020 
     29 O         -69.8149   27.3003  -76.5137 O.2       9 UNK        -0.5274 
     30 CA        -71.4925   25.6510  -76.9221 C.3       8 UNK         0.0270 
     31 CB        -71.0864   24.7557  -75.7379 C.3       8 UNK        -0.1976 
     32 N         -72.9344   25.5125  -77.1485 N.am      8 UNK        -0.4313 
     33 C         -73.5902   25.8409  -78.2704 C.2       8 UNK         0.5041 
     34 O         -73.0343   26.2198  -79.3015 O.2       8 UNK        -0.5577 
     35 CA        -75.1301   25.7993  -78.2117 C.3       7 UNK         0.0284 
     36 CB        -75.6536   24.4182  -78.6327 C.3       7 UNK        -0.1958 
     37 N         -75.6663   26.1548  -76.8912 N.am      7 UNK        -0.4454 
     38 C         -75.4918   27.3451  -76.2966 C.2       7 UNK         0.5089 
     39 O         -74.8998   28.2894  -76.8191 O.2       7 UNK        -0.5125 
     40 CA        -75.9961   27.4914  -74.8554 C.3       6 UNK         0.0408 
     41 CB        -77.4764   27.8749  -74.8126 C.3       6 UNK        -0.1791 
     42 N         -75.7759   26.2801  -74.0701 N.am      6 UNK        -0.4762 
     43 C         -74.5817   25.9154  -73.5887 C.2       6 UNK         0.5007 
     44 O         -73.5557   26.5806  -73.7373 O.2       6 UNK        -0.5032 
     45 CA        -74.5100   24.5583  -72.8612 C.3       5 UNK         0.0783 
     46 C46       -74.9250   24.6755  -71.3697 C.3       11 UNK        -0.0857 
     47 S47       -76.7303   24.5475  -71.0886 S.3       11 UNK        -0.2512 
     48 C48       -77.0323   25.7989  -69.8093 C.3       11 UNK         0.0225 
     49 N         -75.2599   23.5065  -73.5547 N.am      5 UNK        -0.4615 
     50 C         -75.0332   23.0647  -74.7959 C.2       4 UNK         0.5053 
     51 O         -74.0987   23.4456  -75.4972 O.2       4 UNK        -0.5105 
     52 CA        -76.0471   22.0564  -75.3639 C.3       4 UNK         0.0263 
     53 CB        -75.6248   20.6206  -75.0152 C.3       4 UNK        -0.1981 
     54 N         -77.4303   22.2812  -74.9237 N.am      4 UNK        -0.4224 
     55 C         -78.1350   23.4042  -75.1253 C.2       3 UNK         0.4895 
     56 O         -77.6740   24.4206  -75.6507 O.2       3 UNK        -0.5091 
     57 CA        -79.5803   23.3988  -74.5968 C.3       3 UNK         0.0250 
     58 CB        -79.6165   23.8526  -73.1291 C.3       3 UNK        -0.1996 
     59 N         -80.4678   24.2660  -75.3715 N.am      3 UNK        -0.4254 
     60 C         -80.8277   24.0768  -76.6486 C.2       2 UNK         0.5004 
     61 O         -80.4748   23.1079  -77.3229 O.2       2 UNK        -0.5226 
     62 CA        -81.7694   25.1238  -77.2753 C.3       2 UNK         0.0269 
     63 CB        -83.1765   24.5355  -77.4726 C.3       2 UNK        -0.1926 
     64 N         -81.8831   26.3567  -76.4886 N.am      2 UNK        -0.4687 
     65 C         -80.9660   27.3302  -76.4472 C.2       1 UNK         0.5165 
     66 O         -79.9294   27.3081  -77.1099 O.2       1 UNK        -0.5079 
     67 H67       -85.6067   29.0547  -76.6261 H         1 UNK         0.0900 
     68 H68       -84.6562   30.5137  -76.3377 H         1 UNK         0.0900 
     69 H69       -85.5638   29.7775  -75.0156 H         1 UNK         0.0900 
     70 H70       -82.4940   30.0784  -76.2309 H         1 UNK         0.2959 
     71 H71       -80.5144   29.2892  -75.8147 H         1 UNK         0.1079 
     72 H72       -81.7825   27.5487  -73.6380 H         1 UNK         0.0837 
     73 H73       -80.0684   27.6655  -73.8967 H         1 UNK         0.0837 
     74 H74       -81.2222   28.1781  -71.1901 H         1 UNK         0.0685 
     75 H75       -80.8821   29.7927  -70.6247 H         1 UNK         0.0685 
     76 H76       -79.5005   26.6817  -70.5382 H         1 UNK         0.1434 
     77 H77       -75.3965   27.9097  -70.3698 H         1 UNK         0.1329 
     78 H78       -78.4104   30.6840  -71.6347 H         1 UNK         0.1335 
     79 H79       -76.0941   31.4262  -70.7770 H         1 UNK         0.0680 
     80 H80       -74.8422   30.2184  -70.6049 H         1 UNK         0.0680 
     81 H81       -73.7455   32.4990  -73.4294 H         1 UNK         0.1032 
     82 H82       -73.6387   32.0968  -71.7481 H         1 UNK         0.1032 
     83 H83       -71.6070   31.5215  -73.0683 H         1 UNK         0.0461 
     84 H84       -71.8732   27.8983  -71.3501 H         1 UNK         0.3453 
     85 H85       -72.4789   28.1182  -72.9704 H         1 UNK         0.3453 
     86 H86       -73.4262   30.0949  -74.7808 H         1 UNK         0.2984 
     87 H87       -72.7117   29.9716  -76.8705 H         1 UNK         0.0554 
     88 H88       -70.9934   29.8137  -78.6463 H         1 UNK         0.0847 
     89 H89       -69.7159   29.7304  -77.4345 H         1 UNK         0.0847 
     90 H90       -70.6966   31.1759  -77.5778 H         1 UNK         0.0847 
     91 H91       -72.9033   27.8051  -76.8815 H         1 UNK         0.3141 
     92 H92       -70.9778   25.2831  -77.8120 H         1 UNK         0.0743 
     93 H93       -70.0088   24.7844  -75.5718 H         1 UNK         0.0784 
     94 H94       -71.5675   25.0713  -74.8120 H         1 UNK         0.0784 
     95 H95       -71.3552   23.7145  -75.9174 H         1 UNK         0.0784 
     96 H96       -73.4707   25.1117  -76.3841 H         1 UNK         0.3213 
     97 H97       -75.5079   26.5374  -78.9225 H         1 UNK         0.0855 
     98 H98       -75.3866   24.2034  -79.6682 H         1 UNK         0.0814 
     99 H99       -76.7398   24.3596  -78.5566 H         1 UNK         0.0814 
    100 H100      -75.2277   23.6248  -78.0202 H         1 UNK         0.0814 
    101 H101      -76.2202   25.4524  -76.4064 H         1 UNK         0.3105 
    102 H102      -75.4300   28.3018  -74.3964 H         1 UNK         0.0547 
    103 H103      -77.7805   28.1149  -73.7942 H         1 UNK         0.0837 
    104 H104      -77.6751   28.7539  -75.4269 H         1 UNK         0.0837 
    105 H105      -78.1070   27.0649  -75.1776 H         1 UNK         0.0837 
    106 H106      -76.5608   25.6532  -73.9576 H         1 UNK         0.3020 
    107 H107      -73.4581   24.2638  -72.8880 H         1 UNK         0.1245 
    108 H108      -74.5354   25.5935  -70.9254 H         1 UNK         0.0781 
    109 H109      -74.4600   23.8641  -70.8079 H         1 UNK         0.0781 
    110 H110      -76.1620   25.8891  -69.1574 H         1 UNK         0.0836 
    111 H111      -77.8437   25.4474  -69.1702 H         1 UNK         0.0836 
    112 H112      -76.0604   23.1479  -73.0544 H         1 UNK         0.3022 
    113 H113      -76.0360   22.1554  -76.4500 H         1 UNK         0.0747 
    114 H114      -76.2719   19.8874  -75.4971 H         1 UNK         0.0793 
    115 H115      -74.6066   20.4211  -75.3528 H         1 UNK         0.0793 
    116 H116      -75.6527   20.4398  -73.9399 H         1 UNK         0.0793 
    117 H117      -77.8844   21.5036  -74.4660 H         1 UNK         0.3047 
    118 H118      -79.9721   22.3815  -74.6617 H         1 UNK         0.0822 
    119 H119      -79.0271   23.1854  -72.4994 H         1 UNK         0.0807 
    120 H120      -80.6327   23.8467  -72.7344 H         1 UNK         0.0807 
    121 H121      -79.2149   24.8599  -73.0067 H         1 UNK         0.0807 
    122 H122      -80.8056   25.0967  -74.9116 H         1 UNK         0.2946 
    123 H123      -81.3601   25.3737  -78.2570 H         1 UNK         0.1144 
    124 H124      -83.1419   23.6313  -78.0821 H         1 UNK         0.0793 
    125 H125      -83.8336   25.2417  -77.9806 H         1 UNK         0.0793 
    126 H126      -83.6396   24.2710  -76.5211 H         1 UNK         0.0793 
    127 H127      -82.7296   26.4915  -75.9396 H         1 UNK         0.2896 
@<TRIPOS>BOND
     1    1    2 1    
     2    1   67 1    
     3    1   68 1    
     4    1   69 1    
     5    2    3 2    
     6    2    4 am   BACKBONE|DICT|INTERRES
     7    4    5 1    
     8    4   70 1    
     9    5    6 1    
    10    5   65 1    
    11    5   71 1    
    12    6    7 1    
    13    6   72 1    
    14    6   73 1    
    15    7    8 1    
    16    8    9 1    
    17    8   74 1    
    18    8   75 1    
    19    9   10 ar   
    20    9   14 ar   
    21   10   11 ar   
    22   10   76 1    
    23   11   12 ar   
    24   11   48 1    
    25   12   13 ar   
    26   12   77 1    
    27   13   14 ar   
    28   13   15 1    
    29   14   78 1    
    30   15   16 1    
    31   15   79 1    
    32   15   80 1    
    33   16   17 1    
    34   17   18 1    
    35   17   81 1    
    36   17   82 1    
    37   18   19 1    
    38   18   22 1    
    39   18   83 1    
    40   19   20 am   BACKBONE|DICT|INTERRES
    41   19   21 2    
    42   20   84 1    
    43   20   85 1    
    44   22   23 am   BACKBONE|DICT|INTERRES
    45   22   86 1    
    46   23   24 2    
    47   23   25 1    
    48   25   26 1    
    49   25   27 1    
    50   25   87 1    
    51   26   88 1    
    52   26   89 1    
    53   26   90 1    
    54   27   28 am   BACKBONE|DICT|INTERRES
    55   27   91 1    
    56   28   29 2    
    57   28   30 1    
    58   30   31 1    
    59   30   32 1    
    60   30   92 1    
    61   31   93 1    
    62   31   94 1    
    63   31   95 1    
    64   32   33 am   BACKBONE|DICT|INTERRES
    65   32   96 1    
    66   33   34 2    
    67   33   35 1    
    68   35   36 1    
    69   35   37 1    
    70   35   97 1    
    71   36   98 1    
    72   36   99 1    
    73   36  100 1    
    74   37   38 am   BACKBONE|DICT|INTERRES
    75   37  101 1    
    76   38   39 2    
    77   38   40 1    
    78   40   41 1    
    79   40   42 1    
    80   40  102 1    
    81   41  103 1    
    82   41  104 1    
    83   41  105 1    
    84   42   43 am   BACKBONE|DICT|INTERRES
    85   42  106 1    
    86   43   44 2    
    87   43   45 1    
    88   45   46 1    
    89   45   49 1    
    90   45  107 1    
    91   46   47 1    
    92   46  108 1    
    93   46  109 1    
    94   47   48 1    
    95   48  110 1    
    96   48  111 1    
    97   49   50 am   BACKBONE|DICT|INTERRES
    98   49  112 1    
    99   50   51 2    
   100   50   52 1    
   101   52   53 1    
   102   52   54 1    
   103   52  113 1    
   104   53  114 1    
   105   53  115 1    
   106   53  116 1    
   107   54   55 am   BACKBONE|DICT|INTERRES
   108   54  117 1    
   109   55   56 2    
   110   55   57 1    
   111   57   58 1    
   112   57   59 1    
   113   57  118 1    
   114   58  119 1    
   115   58  120 1    
   116   58  121 1    
   117   59   60 am   BACKBONE|DICT|INTERRES
   118   59  122 1    
   119   60   61 2    
   120   60   62 1    
   121   62   63 1    
   122   62   64 1    
   123   62  123 1    
   124   63  124 1    
   125   63  125 1    
   126   63  126 1    
   127   64   65 am   BACKBONE|DICT|INTERRES
   128   64  127 1    
   129   65   66 2    
@<TRIPOS>SUBSTRUCTURE
     1 UNK         1 GROUP             0       ****    0 ROOT    
