@<TRIPOS>MOLECULE
3R135
127   129    1
SMALL
USER_CHARGES


@<TRIPOS>ATOM
      1 CA        -78.5880   30.7272  -75.8683 C.3       0 UNK        -0.1998 
      2 C         -78.9255   29.5973  -74.9072 C.2       0 UNK         0.4909 
      3 O         -78.1215   28.6834  -74.7398 O.2       0 UNK        -0.5240 
      4 N         -80.1031   29.6571  -74.2720 N.am      1 UNK        -0.4739 
      5 CA        -80.6141   28.6117  -73.3813 C.3       1 UNK         0.0864 
      6 C6        -81.7472   29.1614  -72.4773 C.3       11 UNK        -0.0881 
      7 S7        -82.1597   28.0512  -71.0863 S.3       11 UNK        -0.2682 
      8 C8        -81.2108   28.7867  -69.7168 C.3       11 UNK         0.0289 
      9 C9        -79.7117   28.7260  -69.9695 C.ar      11 UNK        -0.0687 
     10 C10       -79.0413   27.4998  -69.9303 C.ar      11 UNK        -0.0823 
     11 C11       -77.6689   27.4329  -70.1881 C.ar      11 UNK        -0.0830 
     12 C12       -76.9614   28.6087  -70.4570 C.ar      11 UNK        -0.1021 
     13 C13       -77.6197   29.8416  -70.4924 C.ar      11 UNK        -0.0753 
     14 C14       -78.9957   29.8931  -70.2518 C.ar      11 UNK        -0.0933 
     15 C15       -76.8484   31.1242  -70.7669 C.3       11 UNK         0.0166 
     16 S16       -76.8090   31.5294  -72.5425 S.3       11 UNK        -0.2615 
     17 C17       -75.3982   30.5241  -73.1281 C.3       11 UNK        -0.0865 
     18 CA        -74.2311   31.3739  -73.7190 C.3       10 UNK         0.0862 
     19 C         -73.3270   32.0528  -72.6409 C.2       10 UNK         0.5551 
     20 N         -73.9148   32.7568  -71.6850 N.am      10 UNK        -0.7319 
     21 O         -72.0991   31.9898  -72.6793 O.2       10 UNK        -0.5018 
     22 N         -73.4533   30.6416  -74.7342 N.am      10 UNK        -0.4509 
     23 C         -72.7950   29.4917  -74.5387 C.2       10 UNK         0.4899 
     24 O         -72.8857   28.8005  -73.5212 O.2       10 UNK        -0.4839 
     25 CA        -71.8154   29.0799  -75.6452 C.3       9 UNK         0.0222 
     26 CB        -70.4283   29.6817  -75.3250 C.3       9 UNK        -0.1966 
     27 N         -71.7873   27.6178  -75.7131 N.am      9 UNK        -0.4218 
     28 C         -70.9603   26.8314  -76.4135 C.2       9 UNK         0.5020 
     29 O         -70.0620   27.2404  -77.1502 O.2       9 UNK        -0.5274 
     30 CA        -71.1935   25.3187  -76.2888 C.3       8 UNK         0.0270 
     31 CB        -71.2816   24.8493  -74.8238 C.3       8 UNK        -0.1976 
     32 N         -72.4129   24.9531  -77.0048 N.am      8 UNK        -0.4313 
     33 C         -72.4617   24.6357  -78.3059 C.2       8 UNK         0.5041 
     34 O         -71.4645   24.5089  -79.0184 O.2       8 UNK        -0.5577 
     35 CA        -73.8511   24.4142  -78.9322 C.3       7 UNK         0.0284 
     36 CB        -74.1825   22.9135  -78.9714 C.3       7 UNK        -0.1958 
     37 N         -74.9296   25.1340  -78.2494 N.am      7 UNK        -0.4454 
     38 C         -75.0514   26.4690  -78.2034 C.2       7 UNK         0.5089 
     39 O         -74.3050   27.2471  -78.7976 O.2       7 UNK        -0.5125 
     40 CA        -76.1732   27.0347  -77.3160 C.3       6 UNK         0.0408 
     41 CB        -77.4878   27.1402  -78.1036 C.3       6 UNK        -0.1791 
     42 N         -76.4031   26.2569  -76.0968 N.am      6 UNK        -0.4762 
     43 C         -75.5050   26.0442  -75.1242 C.2       6 UNK         0.5007 
     44 O         -74.3418   26.4424  -75.1625 O.2       6 UNK        -0.5032 
     45 CA        -75.9705   25.1819  -73.9402 C.3       5 UNK         0.0783 
     46 C46       -76.9079   25.9891  -73.0101 C.3       11 UNK        -0.0857 
     47 S47       -77.4737   25.0297  -71.5653 S.3       11 UNK        -0.2512 
     48 C48       -76.9521   26.0892  -70.1777 C.3       11 UNK         0.0225 
     49 N         -76.5825   23.9494  -74.4410 N.am      5 UNK        -0.4615 
     50 C         -75.9005   22.9239  -74.9679 C.2       4 UNK         0.5053 
     51 O         -74.6719   22.8785  -75.0261 O.2       4 UNK        -0.5105 
     52 CA        -76.7234   21.7554  -75.5403 C.3       4 UNK         0.0263 
     53 CB        -76.9628   20.6896  -74.4591 C.3       4 UNK        -0.1981 
     54 N         -78.0107   22.1726  -76.1032 N.am      4 UNK        -0.4224 
     55 C         -78.1503   22.9276  -77.2025 C.2       3 UNK         0.4895 
     56 O         -77.2078   23.3253  -77.8856 O.2       3 UNK        -0.5091 
     57 CA        -79.5821   23.3609  -77.5677 C.3       3 UNK         0.0250 
     58 CB        -80.2895   22.2643  -78.3794 C.3       3 UNK        -0.1996 
     59 N         -80.4052   23.7285  -76.4071 N.am      3 UNK        -0.4254 
     60 C         -80.0801   24.6804  -75.5211 C.2       2 UNK         0.5004 
     61 O         -79.0300   25.3218  -75.5748 O.2       2 UNK        -0.5226 
     62 CA        -81.0547   24.9071  -74.3531 C.3       2 UNK         0.0269 
     63 CB        -80.9254   23.7754  -73.3195 C.3       2 UNK        -0.1926 
     64 N         -80.7990   26.1827  -73.6802 N.am      2 UNK        -0.4687 
     65 C         -81.0702   27.3862  -74.2017 C.2       1 UNK         0.5165 
     66 O         -81.6793   27.5514  -75.2632 O.2       1 UNK        -0.5079 
     67 H67       -79.3622   31.4939  -75.8852 H         1 UNK         0.0900 
     68 H68       -78.4718   30.3357  -76.8785 H         1 UNK         0.0900 
     69 H69       -77.6500   31.1984  -75.5759 H         1 UNK         0.0900 
     70 H70       -80.7387   30.4153  -74.4725 H         1 UNK         0.2959 
     71 H71       -79.7815   28.3027  -72.7448 H         1 UNK         0.1079 
     72 H72       -81.4613   30.1319  -72.0687 H         1 UNK         0.0837 
     73 H73       -82.6530   29.3425  -73.0592 H         1 UNK         0.0837 
     74 H74       -81.5409   29.8148  -69.5593 H         1 UNK         0.0685 
     75 H75       -81.4420   28.2471  -68.7973 H         1 UNK         0.0685 
     76 H76       -79.5929   26.5932  -69.7206 H         1 UNK         0.1434 
     77 H77       -75.8973   28.5628  -70.6409 H         1 UNK         0.1329 
     78 H78       -79.5082   30.8448  -70.2852 H         1 UNK         0.1335 
     79 H79       -77.3169   31.9527  -70.2335 H         1 UNK         0.0680 
     80 H80       -75.8342   31.0496  -70.3719 H         1 UNK         0.0680 
     81 H81       -75.7919   29.8530  -73.8933 H         1 UNK         0.1032 
     82 H82       -75.0320   29.8719  -72.3355 H         1 UNK         0.1032 
     83 H83       -74.6722   32.1985  -74.2805 H         1 UNK         0.0461 
     84 H84       -74.9204   32.8350  -71.6606 H         1 UNK         0.3453 
     85 H85       -73.3498   33.2192  -70.9902 H         1 UNK         0.3453 
     86 H86       -73.2824   31.1499  -75.5901 H         1 UNK         0.2984 
     87 H87       -72.1731   29.4590  -76.6042 H         1 UNK         0.0554 
     88 H88       -69.7330   29.5741  -76.1565 H         1 UNK         0.0847 
     89 H89       -69.9814   29.2132  -74.4473 H         1 UNK         0.0847 
     90 H90       -70.5006   30.7506  -75.1181 H         1 UNK         0.0847 
     91 H91       -72.5431   27.1757  -75.1918 H         1 UNK         0.3141 
     92 H92       -70.3375   24.8120  -76.7400 H         1 UNK         0.0743 
     93 H93       -72.1453   25.2596  -74.3010 H         1 UNK         0.0784 
     94 H94       -71.3522   23.7629  -74.7666 H         1 UNK         0.0784 
     95 H95       -70.3917   25.1454  -74.2669 H         1 UNK         0.0784 
     96 H96       -73.2848   25.0878  -76.5069 H         1 UNK         0.3213 
     97 H97       -73.8057   24.7810  -79.9598 H         1 UNK         0.0855 
     98 H98       -74.2972   22.5008  -77.9682 H         1 UNK         0.0814 
     99 H99       -73.3924   22.3497  -79.4693 H         1 UNK         0.0814 
    100 H100      -75.1058   22.7257  -79.5196 H         1 UNK         0.0814 
    101 H101      -75.6480   24.5675  -77.8069 H         1 UNK         0.3105 
    102 H102      -75.8785   28.0395  -77.0064 H         1 UNK         0.0547 
    103 H103      -77.3628   27.7585  -78.9933 H         1 UNK         0.0837 
    104 H104      -77.8396   26.1610  -78.4299 H         1 UNK         0.0837 
    105 H105      -78.2747   27.5923  -77.4993 H         1 UNK         0.0837 
    106 H106      -77.3506   25.9070  -75.9548 H         1 UNK         0.3020 
    107 H107      -75.0810   24.9112  -73.3662 H         1 UNK         0.1245 
    108 H108      -77.7937   26.3315  -73.5450 H         1 UNK         0.0781 
    109 H109      -76.4006   26.8946  -72.6735 H         1 UNK         0.0781 
    110 H110      -75.8695   26.2206  -70.2132 H         1 UNK         0.0836 
    111 H111      -77.1671   25.5753  -69.2398 H         1 UNK         0.0836 
    112 H112      -77.5912   23.9480  -74.4892 H         1 UNK         0.3022 
    113 H113      -76.1368   21.3034  -76.3431 H         1 UNK         0.0747 
    114 H114      -77.4750   19.8178  -74.8667 H         1 UNK         0.0793 
    115 H115      -76.0176   20.3411  -74.0401 H         1 UNK         0.0793 
    116 H116      -77.5614   21.0775  -73.6337 H         1 UNK         0.0793 
    117 H117      -78.8423   21.8938  -75.6036 H         1 UNK         0.3047 
    118 H118      -79.4987   24.2486  -78.1982 H         1 UNK         0.0822 
    119 H119      -81.2621   22.6011  -78.7389 H         1 UNK         0.0807 
    120 H120      -80.4433   21.3587  -77.7913 H         1 UNK         0.0807 
    121 H121      -79.7014   21.9877  -79.2559 H         1 UNK         0.0807 
    122 H122      -81.2776   23.2317  -76.2950 H         1 UNK         0.2946 
    123 H123      -82.0729   24.9205  -74.7488 H         1 UNK         0.1144 
    124 H124      -81.6060   23.9254  -72.4811 H         1 UNK         0.0793 
    125 H125      -79.9131   23.7068  -72.9192 H         1 UNK         0.0793 
    126 H126      -81.1683   22.8072  -73.7589 H         1 UNK         0.0793 
    127 H127      -80.2895   26.1359  -72.8098 H         1 UNK         0.2896 
@<TRIPOS>BOND
     1    1    2 1    
     2    1   67 1    
     3    1   68 1    
     4    1   69 1    
     5    2    3 2    
     6    2    4 am   BACKBONE|DICT|INTERRES
     7    4    5 1    
     8    4   70 1    
     9    5    6 1    
    10    5   65 1    
    11    5   71 1    
    12    6    7 1    
    13    6   72 1    
    14    6   73 1    
    15    7    8 1    
    16    8    9 1    
    17    8   74 1    
    18    8   75 1    
    19    9   10 ar   
    20    9   14 ar   
    21   10   11 ar   
    22   10   76 1    
    23   11   12 ar   
    24   11   48 1    
    25   12   13 ar   
    26   12   77 1    
    27   13   14 ar   
    28   13   15 1    
    29   14   78 1    
    30   15   16 1    
    31   15   79 1    
    32   15   80 1    
    33   16   17 1    
    34   17   18 1    
    35   17   81 1    
    36   17   82 1    
    37   18   19 1    
    38   18   22 1    
    39   18   83 1    
    40   19   20 am   BACKBONE|DICT|INTERRES
    41   19   21 2    
    42   20   84 1    
    43   20   85 1    
    44   22   23 am   BACKBONE|DICT|INTERRES
    45   22   86 1    
    46   23   24 2    
    47   23   25 1    
    48   25   26 1    
    49   25   27 1    
    50   25   87 1    
    51   26   88 1    
    52   26   89 1    
    53   26   90 1    
    54   27   28 am   BACKBONE|DICT|INTERRES
    55   27   91 1    
    56   28   29 2    
    57   28   30 1    
    58   30   31 1    
    59   30   32 1    
    60   30   92 1    
    61   31   93 1    
    62   31   94 1    
    63   31   95 1    
    64   32   33 am   BACKBONE|DICT|INTERRES
    65   32   96 1    
    66   33   34 2    
    67   33   35 1    
    68   35   36 1    
    69   35   37 1    
    70   35   97 1    
    71   36   98 1    
    72   36   99 1    
    73   36  100 1    
    74   37   38 am   BACKBONE|DICT|INTERRES
    75   37  101 1    
    76   38   39 2    
    77   38   40 1    
    78   40   41 1    
    79   40   42 1    
    80   40  102 1    
    81   41  103 1    
    82   41  104 1    
    83   41  105 1    
    84   42   43 am   BACKBONE|DICT|INTERRES
    85   42  106 1    
    86   43   44 2    
    87   43   45 1    
    88   45   46 1    
    89   45   49 1    
    90   45  107 1    
    91   46   47 1    
    92   46  108 1    
    93   46  109 1    
    94   47   48 1    
    95   48  110 1    
    96   48  111 1    
    97   49   50 am   BACKBONE|DICT|INTERRES
    98   49  112 1    
    99   50   51 2    
   100   50   52 1    
   101   52   53 1    
   102   52   54 1    
   103   52  113 1    
   104   53  114 1    
   105   53  115 1    
   106   53  116 1    
   107   54   55 am   BACKBONE|DICT|INTERRES
   108   54  117 1    
   109   55   56 2    
   110   55   57 1    
   111   57   58 1    
   112   57   59 1    
   113   57  118 1    
   114   58  119 1    
   115   58  120 1    
   116   58  121 1    
   117   59   60 am   BACKBONE|DICT|INTERRES
   118   59  122 1    
   119   60   61 2    
   120   60   62 1    
   121   62   63 1    
   122   62   64 1    
   123   62  123 1    
   124   63  124 1    
   125   63  125 1    
   126   63  126 1    
   127   64   65 am   BACKBONE|DICT|INTERRES
   128   64  127 1    
   129   65   66 2    
@<TRIPOS>SUBSTRUCTURE
     1 UNK         1 GROUP             0       ****    0 ROOT    
