@<TRIPOS>MOLECULE
3R135
127   129    1
SMALL
USER_CHARGES


@<TRIPOS>ATOM
      1 CA        -82.3242   23.3552  -71.1819 C.3       0 UNK        -0.1998 
      2 C         -80.9837   23.6525  -70.5126 C.2       0 UNK         0.4909 
      3 O         -80.5701   22.8945  -69.6369 O.2       0 UNK        -0.5240 
      4 N         -80.2763   24.7368  -70.8633 N.am      1 UNK        -0.4739 
      5 CA        -80.5838   25.7178  -71.9159 C.3       1 UNK         0.0864 
      6 C6        -79.6584   26.9626  -71.8351 C.3       11 UNK        -0.0881 
      7 S7        -79.5174   27.6540  -70.1469 S.3       11 UNK        -0.2682 
      8 C8        -80.1266   29.3558  -70.3513 C.3       11 UNK         0.0289 
      9 C9        -79.1978   30.1854  -71.2250 C.ar      11 UNK        -0.0687 
     10 C10       -79.5734   30.5131  -72.5301 C.ar      11 UNK        -0.0823 
     11 C11       -78.7200   31.2584  -73.3470 C.ar      11 UNK        -0.0830 
     12 C12       -77.4979   31.7052  -72.8396 C.ar      11 UNK        -0.1021 
     13 C13       -77.1065   31.3786  -71.5381 C.ar      11 UNK        -0.0753 
     14 C14       -77.9626   30.6204  -70.7329 C.ar      11 UNK        -0.0933 
     15 C15       -75.7606   31.8522  -71.0088 C.3       11 UNK         0.0166 
     16 S16       -74.3711   31.1841  -71.9787 S.3       11 UNK        -0.2615 
     17 C17       -74.3788   29.4295  -71.4768 C.3       11 UNK        -0.0865 
     18 CA        -73.0706   28.7065  -71.9033 C.3       10 UNK         0.0862 
     19 C         -72.8737   27.3299  -71.2033 C.2       10 UNK         0.5551 
     20 N         -72.2105   26.3635  -71.8287 N.am      10 UNK        -0.7319 
     21 O         -73.3023   27.1356  -70.0683 O.2       10 UNK        -0.5018 
     22 N         -72.9779   28.5883  -73.3659 N.am      10 UNK        -0.4509 
     23 C         -72.0795   29.1885  -74.1525 C.2       10 UNK         0.4899 
     24 O         -71.2296   29.9830  -73.7452 O.2       10 UNK        -0.4839 
     25 CA        -72.1366   28.8206  -75.6509 C.3       9 UNK         0.0222 
     26 CB        -70.8961   29.3027  -76.4326 C.3       9 UNK        -0.1966 
     27 N         -72.3703   27.3902  -75.9041 N.am      9 UNK        -0.4218 
     28 C         -71.6367   26.3602  -75.4511 C.2       9 UNK         0.5020 
     29 O         -70.6755   26.4869  -74.6908 O.2       9 UNK        -0.5274 
     30 CA        -72.0357   24.9369  -75.8831 C.3       8 UNK         0.0270 
     31 CB        -72.5310   24.1255  -74.6753 C.3       8 UNK        -0.1976 
     32 N         -73.0218   24.8847  -76.9724 N.am      8 UNK        -0.4313 
     33 C         -72.6850   25.0278  -78.2635 C.2       8 UNK         0.5041 
     34 O         -71.5508   25.3217  -78.6438 O.2       8 UNK        -0.5577 
     35 CA        -73.7778   24.7909  -79.3112 C.3       7 UNK         0.0284 
     36 CB        -74.0995   23.2912  -79.4391 C.3       7 UNK        -0.1958 
     37 N         -74.9964   25.5345  -78.9912 N.am      7 UNK        -0.4454 
     38 C         -75.4232   26.6034  -79.6747 C.2       7 UNK         0.5089 
     39 O         -74.8182   27.0979  -80.6272 O.2       7 UNK        -0.5125 
     40 CA        -76.7643   27.2237  -79.2517 C.3       6 UNK         0.0408 
     41 CB        -77.9339   26.4925  -79.9289 C.3       6 UNK        -0.1791 
     42 N         -76.9975   27.2786  -77.8076 N.am      6 UNK        -0.4762 
     43 C         -76.2893   28.0227  -76.9451 C.2       6 UNK         0.5007 
     44 O         -75.2262   28.5765  -77.2230 O.2       6 UNK        -0.5032 
     45 CA        -76.8908   28.1789  -75.5354 C.3       5 UNK         0.0783 
     46 C46       -78.2357   28.9521  -75.5708 C.3       11 UNK        -0.0857 
     47 S47       -78.0097   30.7208  -75.9764 S.3       11 UNK        -0.2512 
     48 C48       -79.1077   31.5571  -74.7866 C.3       11 UNK         0.0225 
     49 N         -77.0355   26.8543  -74.9332 N.am      5 UNK        -0.4615 
     50 C         -76.0387   26.2007  -74.3212 C.2       4 UNK         0.5053 
     51 O         -74.9575   26.7189  -74.0504 O.2       4 UNK        -0.5105 
     52 CA        -76.2474   24.7060  -74.0087 C.3       4 UNK         0.0263 
     53 CB        -76.5778   24.4635  -72.5287 C.3       4 UNK        -0.1981 
     54 N         -77.2392   24.0684  -74.8768 N.am      4 UNK        -0.4224 
     55 C         -77.0329   23.8603  -76.1865 C.2       3 UNK         0.4895 
     56 O         -75.9706   24.1270  -76.7519 O.2       3 UNK        -0.5091 
     57 CA        -78.2084   23.3243  -77.0229 C.3       3 UNK         0.0250 
     58 CB        -78.1355   21.7934  -77.1246 C.3       3 UNK        -0.1996 
     59 N         -79.5285   23.7196  -76.5207 N.am      3 UNK        -0.4254 
     60 C         -79.9553   24.9812  -76.3623 C.2       2 UNK         0.5004 
     61 O         -79.2851   25.9685  -76.6662 O.2       2 UNK        -0.5226 
     62 CA        -81.3278   25.1882  -75.6914 C.3       2 UNK         0.0269 
     63 CB        -82.2432   23.9437  -75.7511 C.3       2 UNK        -0.1926 
     64 N         -81.2039   25.6588  -74.3016 N.am      2 UNK        -0.4687 
     65 C         -80.5020   25.0733  -73.3186 C.2       1 UNK         0.5165 
     66 O         -79.8060   24.0677  -73.4852 O.2       1 UNK        -0.5079 
     67 H67       -82.1715   22.9229  -72.1704 H         1 UNK         0.0900 
     68 H68       -82.8898   22.6355  -70.5904 H         1 UNK         0.0900 
     69 H69       -82.9389   24.2489  -71.2769 H         1 UNK         0.0900 
     70 H70       -79.4049   24.9060  -70.3828 H         1 UNK         0.2959 
     71 H71       -81.6086   26.0593  -71.7598 H         1 UNK         0.1079 
     72 H72       -78.6480   26.7364  -72.1749 H         1 UNK         0.0837 
     73 H73       -80.0240   27.7337  -72.5136 H         1 UNK         0.0837 
     74 H74       -81.1374   29.3319  -70.7618 H         1 UNK         0.0685 
     75 H75       -80.2068   29.8220  -69.3682 H         1 UNK         0.0685 
     76 H76       -80.5236   30.1712  -72.9170 H         1 UNK         0.1434 
     77 H77       -76.8348   32.2822  -73.4701 H         1 UNK         0.1329 
     78 H78       -77.6687   30.3605  -69.7251 H         1 UNK         0.1335 
     79 H79       -75.7285   32.9415  -71.0560 H         1 UNK         0.0680 
     80 H80       -75.6322   31.5864  -69.9584 H         1 UNK         0.0680 
     81 H81       -74.5055   29.3957  -70.3933 H         1 UNK         0.1032 
     82 H82       -75.2522   28.9333  -71.9048 H         1 UNK         0.1032 
     83 H83       -72.2363   29.3057  -71.5351 H         1 UNK         0.0461 
     84 H84       -71.8048   26.5275  -72.7400 H         1 UNK         0.3453 
     85 H85       -72.0760   25.4797  -71.3650 H         1 UNK         0.3453 
     86 H86       -73.6256   27.9149  -73.7731 H         1 UNK         0.2984 
     87 H87       -73.0002   29.3502  -76.0530 H         1 UNK         0.0554 
     88 H88       -70.7774   30.3840  -76.3530 H         1 UNK         0.0847 
     89 H89       -70.9789   29.0649  -77.4931 H         1 UNK         0.0847 
     90 H90       -69.9800   28.8455  -76.0568 H         1 UNK         0.0847 
     91 H91       -73.1707   27.1780  -76.4841 H         1 UNK         0.3141 
     92 H92       -71.1249   24.4493  -76.2383 H         1 UNK         0.0743 
     93 H93       -73.2013   24.7087  -74.0473 H         1 UNK         0.0784 
     94 H94       -73.0391   23.2083  -74.9738 H         1 UNK         0.0784 
     95 H95       -71.6905   23.8382  -74.0424 H         1 UNK         0.0784 
     96 H96       -73.9759   24.6284  -76.7379 H         1 UNK         0.3213 
     97 H97       -73.3768   25.1155  -80.2739 H         1 UNK         0.0855 
     98 H98       -74.4795   22.8677  -78.5094 H         1 UNK         0.0814 
     99 H99       -73.2075   22.7254  -79.7113 H         1 UNK         0.0814 
    100 H100      -74.8442   23.1129  -80.2148 H         1 UNK         0.0814 
    101 H101      -75.5409   25.1942  -78.2022 H         1 UNK         0.3105 
    102 H102      -76.7681   28.2547  -79.6119 H         1 UNK         0.0547 
    103 H103      -77.8168   26.4900  -81.0135 H         1 UNK         0.0837 
    104 H104      -78.0025   25.4538  -79.6077 H         1 UNK         0.0837 
    105 H105      -78.8863   26.9748  -79.7079 H         1 UNK         0.0837 
    106 H106      -77.8475   26.8319  -77.4687 H         1 UNK         0.3020 
    107 H107      -76.1873   28.7616  -74.9345 H         1 UNK         0.1245 
    108 H108      -78.7232   28.8615  -74.6011 H         1 UNK         0.0781 
    109 H109      -78.9366   28.5223  -76.2875 H         1 UNK         0.0781 
    110 H110      -80.1389   31.2614  -74.9859 H         1 UNK         0.0836 
    111 H111      -79.0595   32.6338  -74.9552 H         1 UNK         0.0836 
    112 H112      -77.8695   26.3425  -75.1938 H         1 UNK         0.3022 
    113 H113      -75.3015   24.2046  -74.2021 H         1 UNK         0.0747 
    114 H114      -76.5260   23.4021  -72.2863 H         1 UNK         0.0793 
    115 H115      -75.8677   24.9780  -71.8792 H         1 UNK         0.0793 
    116 H116      -77.5733   24.8089  -72.2653 H         1 UNK         0.0793 
    117 H117      -78.1485   23.8607  -74.4704 H         1 UNK         0.3047 
    118 H118      -78.1032   23.7356  -78.0275 H         1 UNK         0.0822 
    119 H119      -78.9017   21.4026  -77.7944 H         1 UNK         0.0807 
    120 H120      -78.2633   21.3172  -76.1516 H         1 UNK         0.0807 
    121 H121      -77.1696   21.4745  -77.5198 H         1 UNK         0.0807 
    122 H122      -80.1312   22.9751  -76.2015 H         1 UNK         0.2946 
    123 H123      -81.8165   25.9849  -76.2553 H         1 UNK         0.1144 
    124 H124      -83.2430   24.1805  -75.3867 H         1 UNK         0.0793 
    125 H125      -81.8656   23.1174  -75.1477 H         1 UNK         0.0793 
    126 H126      -82.3566   23.5850  -76.7752 H         1 UNK         0.0793 
    127 H127      -81.7173   26.5034  -74.0894 H         1 UNK         0.2896 
@<TRIPOS>BOND
     1    1    2 1    
     2    1   67 1    
     3    1   68 1    
     4    1   69 1    
     5    2    3 2    
     6    2    4 am   BACKBONE|DICT|INTERRES
     7    4    5 1    
     8    4   70 1    
     9    5    6 1    
    10    5   65 1    
    11    5   71 1    
    12    6    7 1    
    13    6   72 1    
    14    6   73 1    
    15    7    8 1    
    16    8    9 1    
    17    8   74 1    
    18    8   75 1    
    19    9   10 ar   
    20    9   14 ar   
    21   10   11 ar   
    22   10   76 1    
    23   11   12 ar   
    24   11   48 1    
    25   12   13 ar   
    26   12   77 1    
    27   13   14 ar   
    28   13   15 1    
    29   14   78 1    
    30   15   16 1    
    31   15   79 1    
    32   15   80 1    
    33   16   17 1    
    34   17   18 1    
    35   17   81 1    
    36   17   82 1    
    37   18   19 1    
    38   18   22 1    
    39   18   83 1    
    40   19   20 am   BACKBONE|DICT|INTERRES
    41   19   21 2    
    42   20   84 1    
    43   20   85 1    
    44   22   23 am   BACKBONE|DICT|INTERRES
    45   22   86 1    
    46   23   24 2    
    47   23   25 1    
    48   25   26 1    
    49   25   27 1    
    50   25   87 1    
    51   26   88 1    
    52   26   89 1    
    53   26   90 1    
    54   27   28 am   BACKBONE|DICT|INTERRES
    55   27   91 1    
    56   28   29 2    
    57   28   30 1    
    58   30   31 1    
    59   30   32 1    
    60   30   92 1    
    61   31   93 1    
    62   31   94 1    
    63   31   95 1    
    64   32   33 am   BACKBONE|DICT|INTERRES
    65   32   96 1    
    66   33   34 2    
    67   33   35 1    
    68   35   36 1    
    69   35   37 1    
    70   35   97 1    
    71   36   98 1    
    72   36   99 1    
    73   36  100 1    
    74   37   38 am   BACKBONE|DICT|INTERRES
    75   37  101 1    
    76   38   39 2    
    77   38   40 1    
    78   40   41 1    
    79   40   42 1    
    80   40  102 1    
    81   41  103 1    
    82   41  104 1    
    83   41  105 1    
    84   42   43 am   BACKBONE|DICT|INTERRES
    85   42  106 1    
    86   43   44 2    
    87   43   45 1    
    88   45   46 1    
    89   45   49 1    
    90   45  107 1    
    91   46   47 1    
    92   46  108 1    
    93   46  109 1    
    94   47   48 1    
    95   48  110 1    
    96   48  111 1    
    97   49   50 am   BACKBONE|DICT|INTERRES
    98   49  112 1    
    99   50   51 2    
   100   50   52 1    
   101   52   53 1    
   102   52   54 1    
   103   52  113 1    
   104   53  114 1    
   105   53  115 1    
   106   53  116 1    
   107   54   55 am   BACKBONE|DICT|INTERRES
   108   54  117 1    
   109   55   56 2    
   110   55   57 1    
   111   57   58 1    
   112   57   59 1    
   113   57  118 1    
   114   58  119 1    
   115   58  120 1    
   116   58  121 1    
   117   59   60 am   BACKBONE|DICT|INTERRES
   118   59  122 1    
   119   60   61 2    
   120   60   62 1    
   121   62   63 1    
   122   62   64 1    
   123   62  123 1    
   124   63  124 1    
   125   63  125 1    
   126   63  126 1    
   127   64   65 am   BACKBONE|DICT|INTERRES
   128   64  127 1    
   129   65   66 2    
@<TRIPOS>SUBSTRUCTURE
     1 UNK         1 GROUP             0       ****    0 ROOT    
