@<TRIPOS>MOLECULE
3R135
127   129    1
SMALL
USER_CHARGES


@<TRIPOS>ATOM
      1 CA        -84.1924   30.3789  -75.6266 C.3       0 UNK        -0.1998 
      2 C         -82.7007   30.2797  -75.3454 C.2       0 UNK         0.4909 
      3 O         -81.9906   31.2803  -75.4471 O.2       0 UNK        -0.5240 
      4 N         -82.2206   29.0801  -74.9924 N.am      1 UNK        -0.4739 
      5 CA        -80.8127   28.8019  -74.6774 C.3       1 UNK         0.0864 
      6 C6        -80.6444   27.4424  -73.9577 C.3       11 UNK        -0.0881 
      7 S7        -81.4628   27.3844  -72.3306 S.3       11 UNK        -0.2682 
      8 C8        -80.3471   26.2568  -71.4169 C.3       11 UNK         0.0289 
      9 C9        -79.0291   26.8558  -70.9108 C.ar      11 UNK        -0.0687 
     10 C10       -78.2288   26.0736  -70.0689 C.ar      11 UNK        -0.0823 
     11 C11       -77.0322   26.5746  -69.5459 C.ar      11 UNK        -0.0830 
     12 C12       -76.6195   27.8655  -69.8861 C.ar      11 UNK        -0.1021 
     13 C13       -77.4051   28.6621  -70.7212 C.ar      11 UNK        -0.0753 
     14 C14       -78.6035   28.1535  -71.2296 C.ar      11 UNK        -0.0933 
     15 C15       -76.9950   30.0942  -71.0319 C.3       11 UNK         0.0166 
     16 S16       -76.3978   30.2818  -72.7378 S.3       11 UNK        -0.2615 
     17 C17       -74.6872   29.6556  -72.6072 C.3       11 UNK        -0.0865 
     18 CA        -73.8531   29.9381  -73.8888 C.3       10 UNK         0.0862 
     19 C         -72.3590   29.5300  -73.7344 C.2       10 UNK         0.5551 
     20 N         -71.6905   29.0534  -74.7788 N.am      10 UNK        -0.7319 
     21 O         -71.7883   29.6537  -72.6538 O.2       10 UNK        -0.5018 
     22 N         -74.4698   29.3504  -75.0903 N.am      10 UNK        -0.4509 
     23 C         -74.9738   30.0376  -76.1207 C.2       10 UNK         0.4899 
     24 O         -75.0196   31.2687  -76.1700 O.2       10 UNK        -0.4839 
     25 CA        -75.4996   29.2011  -77.3067 C.3       9 UNK         0.0222 
     26 CB        -75.7268   30.0519  -78.5733 C.3       9 UNK        -0.1966 
     27 N         -74.6968   28.0178  -77.6472 N.am      9 UNK        -0.4218 
     28 C         -73.3760   27.9428  -77.8589 C.2       9 UNK         0.5020 
     29 O         -72.5826   28.8498  -77.5995 O.2       9 UNK        -0.5274 
     30 CA        -72.8604   26.6285  -78.4771 C.3       8 UNK         0.0270 
     31 CB        -71.3860   26.7241  -78.9132 C.3       8 UNK        -0.1976 
     32 N         -73.0098   25.4596  -77.6090 N.am      8 UNK        -0.4313 
     33 C         -74.1484   24.8371  -77.2859 C.2       8 UNK         0.5041 
     34 O         -75.2733   25.2728  -77.5361 O.2       8 UNK        -0.5577 
     35 CA        -74.0092   23.4959  -76.5538 C.3       7 UNK         0.0284 
     36 CB        -73.1562   22.4773  -77.3391 C.3       7 UNK        -0.1958 
     37 N         -73.5505   23.6563  -75.1723 N.am      7 UNK        -0.4454 
     38 C         -72.3620   24.0861  -74.7216 C.2       7 UNK         0.5089 
     39 O         -71.4158   24.3618  -75.4610 O.2       7 UNK        -0.5125 
     40 CA        -72.2064   24.2765  -73.1971 C.3       6 UNK         0.0408 
     41 CB        -71.5868   25.6483  -72.8770 C.3       6 UNK        -0.1791 
     42 N         -73.4806   24.1689  -72.4817 N.am      6 UNK        -0.4762 
     43 C         -74.0320   23.0420  -72.0069 C.2       6 UNK         0.5007 
     44 O         -73.4797   21.9423  -72.0372 O.2       6 UNK        -0.5032 
     45 CA        -75.4776   23.1646  -71.4670 C.3       5 UNK         0.0783 
     46 C46       -75.5142   23.3632  -69.9320 C.3       11 UNK        -0.0857 
     47 S47       -74.7929   24.9427  -69.3552 S.3       11 UNK        -0.2512 
     48 C48       -76.2108   25.7573  -68.5594 C.3       11 UNK         0.0225 
     49 N         -76.2548   24.1919  -72.1750 N.am      5 UNK        -0.4615 
     50 C         -76.5605   24.1403  -73.4783 C.2       4 UNK         0.5053 
     51 O         -76.2945   23.1748  -74.1954 O.2       4 UNK        -0.5105 
     52 CA        -77.1937   25.4023  -74.0787 C.3       4 UNK         0.0263 
     53 CB        -76.2632   26.6145  -73.9223 C.3       4 UNK        -0.1981 
     54 N         -77.5014   25.2429  -75.5008 N.am      4 UNK        -0.4224 
     55 C         -78.6499   24.7532  -75.9748 C.2       3 UNK         0.4895 
     56 O         -79.5823   24.3677  -75.2666 O.2       3 UNK        -0.5091 
     57 CA        -78.8237   24.8062  -77.4966 C.3       3 UNK         0.0250 
     58 CB        -79.7007   23.6564  -78.0254 C.3       3 UNK        -0.1996 
     59 N         -79.4723   26.0810  -77.7846 N.am      3 UNK        -0.4254 
     60 C         -78.9073   27.1248  -78.4043 C.2       2 UNK         0.5004 
     61 O         -77.8126   27.0890  -78.9647 O.2       2 UNK        -0.5226 
     62 CA        -79.6938   28.4482  -78.3617 C.3       2 UNK         0.0269 
     63 CB        -80.6460   28.5552  -79.5633 C.3       2 UNK        -0.1926 
     64 N         -80.4555   28.6068  -77.1164 N.am      2 UNK        -0.4687 
     65 C         -79.8955   28.8356  -75.9177 C.2       1 UNK         0.5165 
     66 O         -78.6924   29.0346  -75.7611 O.2       1 UNK        -0.5079 
     67 H67       -84.3600   30.7127  -76.6502 H         1 UNK         0.0900 
     68 H68       -84.6536   31.1005  -74.9528 H         1 UNK         0.0900 
     69 H69       -84.6971   29.4220  -75.4947 H         1 UNK         0.0900 
     70 H70       -82.8537   28.2988  -74.8938 H         1 UNK         0.2959 
     71 H71       -80.4561   29.5893  -74.0089 H         1 UNK         0.1079 
     72 H72       -81.0319   26.6254  -74.5692 H         1 UNK         0.0837 
     73 H73       -79.5846   27.2351  -73.8108 H         1 UNK         0.0837 
     74 H74       -80.1308   25.3904  -72.0439 H         1 UNK         0.0685 
     75 H75       -80.9021   25.8788  -70.5571 H         1 UNK         0.0685 
     76 H76       -78.5545   25.0783  -69.7970 H         1 UNK         0.1434 
     77 H77       -75.6996   28.2597  -69.4756 H         1 UNK         0.1329 
     78 H78       -79.2001   28.7917  -71.8639 H         1 UNK         0.1335 
     79 H79       -77.8578   30.7474  -70.8933 H         1 UNK         0.0680 
     80 H80       -76.2348   30.4467  -70.3331 H         1 UNK         0.0680 
     81 H81       -74.2219   30.1357  -71.7443 H         1 UNK         0.1032 
     82 H82       -74.7056   28.5896  -72.3831 H         1 UNK         0.1032 
     83 H83       -73.8145   31.0227  -74.0016 H         1 UNK         0.0461 
     84 H84       -70.7220   28.8023  -74.6648 H         1 UNK         0.3453 
     85 H85       -72.1132   29.0187  -75.7013 H         1 UNK         0.3453 
     86 H86       -74.4312   28.3457  -75.1592 H         1 UNK         0.2984 
     87 H87       -76.4680   28.8136  -76.9946 H         1 UNK         0.0554 
     88 H88       -76.1528   29.4546  -79.3796 H         1 UNK         0.0847 
     89 H89       -74.7955   30.4901  -78.9341 H         1 UNK         0.0847 
     90 H90       -76.4221   30.8694  -78.3789 H         1 UNK         0.0847 
     91 H91       -75.2235   27.1611  -77.8114 H         1 UNK         0.3141 
     92 H92       -73.4556   26.4518  -79.3756 H         1 UNK         0.0743 
     93 H93       -71.2310   27.5650  -79.5908 H         1 UNK         0.0784 
     94 H94       -70.7216   26.8653  -78.0595 H         1 UNK         0.0784 
     95 H95       -71.0683   25.8243  -79.4404 H         1 UNK         0.0784 
     96 H96       -72.1569   25.0699  -77.2194 H         1 UNK         0.3213 
     97 H97       -75.0147   23.0772  -76.4896 H         1 UNK         0.0855 
     98 H98       -72.1174   22.7891  -77.4462 H         1 UNK         0.0814 
     99 H99       -73.5544   22.3339  -78.3444 H         1 UNK         0.0814 
    100 H100      -73.1604   21.5036  -76.8494 H         1 UNK         0.0814 
    101 H101      -74.2677   23.4600  -74.4834 H         1 UNK         0.3105 
    102 H102      -71.5245   23.5020  -72.8405 H         1 UNK         0.0547 
    103 H103      -72.2036   26.4662  -73.2502 H         1 UNK         0.0837 
    104 H104      -71.4600   25.7868  -71.8032 H         1 UNK         0.0837 
    105 H105      -70.6007   25.7520  -73.3316 H         1 UNK         0.0837 
    106 H106      -74.0106   25.0221  -72.3810 H         1 UNK         0.3020 
    107 H107      -75.9573   22.2058  -71.6791 H         1 UNK         0.1245 
    108 H108      -74.9812   22.5494  -69.4364 H         1 UNK         0.0781 
    109 H109      -76.5450   23.2827  -69.5847 H         1 UNK         0.0781 
    110 H110      -76.8320   25.0228  -68.0446 H         1 UNK         0.0836 
    111 H111      -75.8316   26.4184  -67.7784 H         1 UNK         0.0836 
    112 H112      -76.4979   25.0119  -71.6362 H         1 UNK         0.3022 
    113 H113      -78.1118   25.5930  -73.5236 H         1 UNK         0.0747 
    114 H114      -76.0921   26.8409  -72.8703 H         1 UNK         0.0793 
    115 H115      -76.7050   27.5074  -74.3665 H         1 UNK         0.0793 
    116 H116      -75.2940   26.4449  -74.3926 H         1 UNK         0.0793 
    117 H117      -76.7657   25.4703  -76.1629 H         1 UNK         0.3047 
    118 H118      -77.8439   24.7417  -77.9743 H         1 UNK         0.0822 
    119 H119      -79.2598   22.6891  -77.7814 H         1 UNK         0.0807 
    120 H120      -79.7992   23.7047  -79.1099 H         1 UNK         0.0807 
    121 H121      -80.7045   23.6757  -77.5989 H         1 UNK         0.0807 
    122 H122      -80.3636   26.2274  -77.3333 H         1 UNK         0.2946 
    123 H123      -78.9666   29.2615  -78.4254 H         1 UNK         0.1144 
    124 H124      -81.4062   27.7732  -79.5502 H         1 UNK         0.0793 
    125 H125      -80.0985   28.4620  -80.5024 H         1 UNK         0.0793 
    126 H126      -81.1548   29.5193  -79.5811 H         1 UNK         0.0793 
    127 H127      -81.4565   28.4821  -77.1635 H         1 UNK         0.2896 
@<TRIPOS>BOND
     1    1    2 1    
     2    1   67 1    
     3    1   68 1    
     4    1   69 1    
     5    2    3 2    
     6    2    4 am   BACKBONE|DICT|INTERRES
     7    4    5 1    
     8    4   70 1    
     9    5    6 1    
    10    5   65 1    
    11    5   71 1    
    12    6    7 1    
    13    6   72 1    
    14    6   73 1    
    15    7    8 1    
    16    8    9 1    
    17    8   74 1    
    18    8   75 1    
    19    9   10 ar   
    20    9   14 ar   
    21   10   11 ar   
    22   10   76 1    
    23   11   12 ar   
    24   11   48 1    
    25   12   13 ar   
    26   12   77 1    
    27   13   14 ar   
    28   13   15 1    
    29   14   78 1    
    30   15   16 1    
    31   15   79 1    
    32   15   80 1    
    33   16   17 1    
    34   17   18 1    
    35   17   81 1    
    36   17   82 1    
    37   18   19 1    
    38   18   22 1    
    39   18   83 1    
    40   19   20 am   BACKBONE|DICT|INTERRES
    41   19   21 2    
    42   20   84 1    
    43   20   85 1    
    44   22   23 am   BACKBONE|DICT|INTERRES
    45   22   86 1    
    46   23   24 2    
    47   23   25 1    
    48   25   26 1    
    49   25   27 1    
    50   25   87 1    
    51   26   88 1    
    52   26   89 1    
    53   26   90 1    
    54   27   28 am   BACKBONE|DICT|INTERRES
    55   27   91 1    
    56   28   29 2    
    57   28   30 1    
    58   30   31 1    
    59   30   32 1    
    60   30   92 1    
    61   31   93 1    
    62   31   94 1    
    63   31   95 1    
    64   32   33 am   BACKBONE|DICT|INTERRES
    65   32   96 1    
    66   33   34 2    
    67   33   35 1    
    68   35   36 1    
    69   35   37 1    
    70   35   97 1    
    71   36   98 1    
    72   36   99 1    
    73   36  100 1    
    74   37   38 am   BACKBONE|DICT|INTERRES
    75   37  101 1    
    76   38   39 2    
    77   38   40 1    
    78   40   41 1    
    79   40   42 1    
    80   40  102 1    
    81   41  103 1    
    82   41  104 1    
    83   41  105 1    
    84   42   43 am   BACKBONE|DICT|INTERRES
    85   42  106 1    
    86   43   44 2    
    87   43   45 1    
    88   45   46 1    
    89   45   49 1    
    90   45  107 1    
    91   46   47 1    
    92   46  108 1    
    93   46  109 1    
    94   47   48 1    
    95   48  110 1    
    96   48  111 1    
    97   49   50 am   BACKBONE|DICT|INTERRES
    98   49  112 1    
    99   50   51 2    
   100   50   52 1    
   101   52   53 1    
   102   52   54 1    
   103   52  113 1    
   104   53  114 1    
   105   53  115 1    
   106   53  116 1    
   107   54   55 am   BACKBONE|DICT|INTERRES
   108   54  117 1    
   109   55   56 2    
   110   55   57 1    
   111   57   58 1    
   112   57   59 1    
   113   57  118 1    
   114   58  119 1    
   115   58  120 1    
   116   58  121 1    
   117   59   60 am   BACKBONE|DICT|INTERRES
   118   59  122 1    
   119   60   61 2    
   120   60   62 1    
   121   62   63 1    
   122   62   64 1    
   123   62  123 1    
   124   63  124 1    
   125   63  125 1    
   126   63  126 1    
   127   64   65 am   BACKBONE|DICT|INTERRES
   128   64  127 1    
   129   65   66 2    
@<TRIPOS>SUBSTRUCTURE
     1 UNK         1 GROUP             0       ****    0 ROOT    
