@<TRIPOS>MOLECULE
3R135
127   129    1
SMALL
USER_CHARGES


@<TRIPOS>ATOM
      1 CA        -84.3001   24.2206  -71.8446 C.3       0 UNK        -0.1998 
      2 C         -83.4002   25.3627  -72.2904 C.2       0 UNK         0.4909 
      3 O         -83.8572   26.2681  -72.9892 O.2       0 UNK        -0.5240 
      4 N         -82.1182   25.3252  -71.9055 N.am      1 UNK        -0.4739 
      5 CA        -81.0966   26.3346  -72.2136 C.3       1 UNK         0.0864 
      6 C6        -79.9396   26.3016  -71.1803 C.3       11 UNK        -0.0881 
      7 S7        -80.4171   26.9895  -69.5595 S.3       11 UNK        -0.2682 
      8 C8        -80.5075   28.7889  -69.8880 C.3       11 UNK         0.0289 
      9 C9        -79.3606   29.3174  -70.7448 C.ar      11 UNK        -0.0687 
     10 C10       -79.6214   29.9113  -71.9854 C.ar      11 UNK        -0.0823 
     11 C11       -78.5762   30.3789  -72.7906 C.ar      11 UNK        -0.0830 
     12 C12       -77.2587   30.2468  -72.3387 C.ar      11 UNK        -0.1021 
     13 C13       -76.9847   29.6425  -71.1085 C.ar      11 UNK        -0.0753 
     14 C14       -78.0383   29.1945  -70.3082 C.ar      11 UNK        -0.0933 
     15 C15       -75.5467   29.4495  -70.6620 C.3       11 UNK         0.0166 
     16 S16       -74.8689   27.9236  -71.3787 S.3       11 UNK        -0.2615 
     17 C17       -73.1108   28.0689  -70.9088 C.3       11 UNK        -0.0865 
     18 CA        -72.2967   29.0343  -71.8144 C.3       10 UNK         0.0862 
     19 C         -70.7895   29.0197  -71.4201 C.2       10 UNK         0.5551 
     20 N         -69.8711   28.6064  -72.2871 N.am      10 UNK        -0.7319 
     21 O         -70.4490   29.3936  -70.3006 O.2       10 UNK        -0.5018 
     22 N         -72.5600   28.7968  -73.2398 N.am      10 UNK        -0.4509 
     23 C         -72.2800   29.6434  -74.2377 C.2       10 UNK         0.4899 
     24 O         -71.8319   30.7786  -74.0706 O.2       10 UNK        -0.4839 
     25 CA        -72.5450   29.1148  -75.6614 C.3       9 UNK         0.0222 
     26 CB        -71.7180   29.8454  -76.7396 C.3       9 UNK        -0.1966 
     27 N         -72.3825   27.6571  -75.7740 N.am      9 UNK        -0.4218 
     28 C         -71.2743   26.9489  -75.5022 C.2       9 UNK         0.5020 
     29 O         -70.2057   27.4529  -75.1524 O.2       9 UNK        -0.5274 
     30 CA        -71.3791   25.4200  -75.5708 C.3       8 UNK         0.0270 
     31 CB        -71.6181   24.8497  -74.1613 C.3       8 UNK        -0.1976 
     32 N         -72.4559   24.9660  -76.4554 N.am      8 UNK        -0.4313 
     33 C         -72.2639   24.4291  -77.6657 C.2       8 UNK         0.5041 
     34 O         -71.1617   24.3317  -78.2080 O.2       8 UNK        -0.5577 
     35 CA        -73.4984   23.8585  -78.3790 C.3       7 UNK         0.0284 
     36 CB        -73.8891   22.5037  -77.7654 C.3       7 UNK        -0.1958 
     37 N         -74.6590   24.7535  -78.3821 N.am      7 UNK        -0.4454 
     38 C         -74.7721   25.8230  -79.1834 C.2       7 UNK         0.5089 
     39 O         -73.8613   26.2428  -79.8980 O.2       7 UNK        -0.5125 
     40 CA        -76.1448   26.5161  -79.2365 C.3       6 UNK         0.0408 
     41 CB        -77.1720   25.6372  -79.9689 C.3       6 UNK        -0.1791 
     42 N         -76.6511   26.8609  -77.9101 N.am      6 UNK        -0.4762 
     43 C         -76.1997   27.8844  -77.1713 C.2       6 UNK         0.5007 
     44 O         -75.3616   28.6912  -77.5717 O.2       6 UNK        -0.5032 
     45 CA        -76.7462   28.0021  -75.7306 C.3       5 UNK         0.0783 
     46 C46       -78.0669   28.8142  -75.6793 C.3       11 UNK        -0.0857 
     47 S47       -77.7624   30.6017  -75.4936 S.3       11 UNK        -0.2512 
     48 C48       -78.8932   31.0491  -74.1277 C.3       11 UNK         0.0225 
     49 N         -76.8932   26.6941  -75.0897 N.am      5 UNK        -0.4615 
     50 C         -75.9032   25.8185  -74.8778 C.2       4 UNK         0.5053 
     51 O         -74.7257   26.0265  -75.1700 O.2       4 UNK        -0.5105 
     52 CA        -76.3050   24.4592  -74.2901 C.3       4 UNK         0.0263 
     53 CB        -76.4086   24.5428  -72.7593 C.3       4 UNK        -0.1981 
     54 N         -77.5686   23.9732  -74.8510 N.am      4 UNK        -0.4224 
     55 C         -77.7244   23.5540  -76.1148 C.2       3 UNK         0.4895 
     56 O         -76.8100   23.5035  -76.9366 O.2       3 UNK        -0.5091 
     57 CA        -79.1488   23.1668  -76.5474 C.3       3 UNK         0.0250 
     58 CB        -79.5467   21.8002  -75.9668 C.3       3 UNK        -0.1996 
     59 N         -80.1473   24.1727  -76.1767 N.am      3 UNK        -0.4254 
     60 C         -80.1767   25.4219  -76.6623 C.2       2 UNK         0.5004 
     61 O         -79.3864   25.8489  -77.5028 O.2       2 UNK        -0.5226 
     62 CA        -81.2398   26.3744  -76.0874 C.3       2 UNK         0.0269 
     63 CB        -82.5651   26.2197  -76.8497 C.3       2 UNK        -0.1926 
     64 N         -81.4949   26.2552  -74.6448 N.am      2 UNK        -0.4687 
     65 C         -80.5795   26.2294  -73.6659 C.2       1 UNK         0.5165 
     66 O         -79.3711   26.1349  -73.8779 O.2       1 UNK        -0.5079 
     67 H67       -83.7655   23.4955  -71.2312 H         1 UNK         0.0900 
     68 H68       -85.1350   24.6078  -71.2612 H         1 UNK         0.0900 
     69 H69       -84.7031   23.6999  -72.7128 H         1 UNK         0.0900 
     70 H70       -81.7998   24.5498  -71.3418 H         1 UNK         0.2959 
     71 H71       -81.5657   27.3187  -72.1556 H         1 UNK         0.1079 
     72 H72       -79.0616   26.8476  -71.5273 H         1 UNK         0.0837 
     73 H73       -79.5915   25.2777  -71.0341 H         1 UNK         0.0837 
     74 H74       -80.5102   29.3185  -68.9344 H         1 UNK         0.0685 
     75 H75       -81.4684   29.0072  -70.3561 H         1 UNK         0.0685 
     76 H76       -80.6432   30.0118  -72.3251 H         1 UNK         0.1434 
     77 H77       -76.4399   30.5991  -72.9509 H         1 UNK         0.1329 
     78 H78       -77.8302   28.7206  -69.3586 H         1 UNK         0.1335 
     79 H79       -75.4830   29.4029  -69.5737 H         1 UNK         0.0680 
     80 H80       -74.9472   30.3052  -70.9753 H         1 UNK         0.0680 
     81 H81       -72.6809   27.0661  -70.9477 H         1 UNK         0.1032 
     82 H82       -73.0489   28.3798  -69.8640 H         1 UNK         0.1032 
     83 H83       -72.6430   30.0468  -71.6008 H         1 UNK         0.0461 
     84 H84       -70.1287   28.3047  -73.2192 H         1 UNK         0.3453 
     85 H85       -68.9018   28.6072  -72.0127 H         1 UNK         0.3453 
     86 H86       -72.9494   27.8948  -73.4697 H         1 UNK         0.2984 
     87 H87       -73.5957   29.3248  -75.8528 H         1 UNK         0.0554 
     88 H88       -71.9351   30.9141  -76.7428 H         1 UNK         0.0847 
     89 H89       -71.9485   29.4676  -77.7358 H         1 UNK         0.0847 
     90 H90       -70.6461   29.7316  -76.5754 H         1 UNK         0.0847 
     91 H91       -73.2330   27.1360  -75.9603 H         1 UNK         0.3141 
     92 H92       -70.4154   25.0458  -75.9227 H         1 UNK         0.0743 
     93 H93       -70.8232   25.1512  -73.4775 H         1 UNK         0.0784 
     94 H94       -72.5613   25.1940  -73.7354 H         1 UNK         0.0784 
     95 H95       -71.6360   23.7599  -74.1745 H         1 UNK         0.0784 
     96 H96       -73.4032   25.0666  -76.0988 H         1 UNK         0.3213 
     97 H97       -73.2163   23.6758  -79.4185 H         1 UNK         0.0855 
     98 H98       -74.2025   22.6043  -76.7256 H         1 UNK         0.0814 
     99 H99       -73.0494   21.8076  -77.7872 H         1 UNK         0.0814 
    100 H100      -74.7078   22.0405  -78.3166 H         1 UNK         0.0814 
    101 H101      -75.4664   24.4532  -77.8390 H         1 UNK         0.3105 
    102 H102      -76.0313   27.4379  -79.8112 H         1 UNK         0.0547 
    103 H103      -78.1192   26.1614  -80.0966 H         1 UNK         0.0837 
    104 H104      -76.8158   25.3638  -80.9629 H         1 UNK         0.0837 
    105 H105      -77.3765   24.7124  -79.4280 H         1 UNK         0.0837 
    106 H106      -77.3983   26.2808  -77.5402 H         1 UNK         0.3020 
    107 H107      -75.9887   28.5278  -75.1446 H         1 UNK         0.1245 
    108 H108      -78.6718   28.4925  -74.8316 H         1 UNK         0.0781 
    109 H109      -78.6880   28.6413  -76.5603 H         1 UNK         0.0781 
    110 H110      -79.9131   30.8183  -74.4399 H         1 UNK         0.0836 
    111 H111      -78.8542   32.1299  -73.9870 H         1 UNK         0.0836 
    112 H112      -77.8267   26.4473  -74.7667 H         1 UNK         0.3022 
    113 H113      -75.5213   23.7413  -74.5417 H         1 UNK         0.0747 
    114 H114      -76.6533   23.5743  -72.3233 H         1 UNK         0.0793 
    115 H115      -75.4615   24.8648  -72.3239 H         1 UNK         0.0793 
    116 H116      -77.1690   25.2574  -72.4418 H         1 UNK         0.0793 
    117 H117      -78.3910   24.0818  -74.2736 H         1 UNK         0.3047 
    118 H118      -79.1484   23.0850  -77.6367 H         1 UNK         0.0822 
    119 H119      -78.8187   21.0347  -76.2397 H         1 UNK         0.0807 
    120 H120      -80.5143   21.4744  -76.3490 H         1 UNK         0.0807 
    121 H121      -79.6056   21.8206  -74.8780 H         1 UNK         0.0807 
    122 H122      -80.8309   23.9145  -75.4802 H         1 UNK         0.2946 
    123 H123      -80.8723   27.3884  -76.2561 H         1 UNK         0.1144 
    124 H124      -83.2863   26.9806  -76.5506 H         1 UNK         0.0793 
    125 H125      -83.0179   25.2426  -76.6769 H         1 UNK         0.0793 
    126 H126      -82.4136   26.3247  -77.9252 H         1 UNK         0.0793 
    127 H127      -82.4658   26.3114  -74.3491 H         1 UNK         0.2896 
@<TRIPOS>BOND
     1    1    2 1    
     2    1   67 1    
     3    1   68 1    
     4    1   69 1    
     5    2    3 2    
     6    2    4 am   BACKBONE|DICT|INTERRES
     7    4    5 1    
     8    4   70 1    
     9    5    6 1    
    10    5   65 1    
    11    5   71 1    
    12    6    7 1    
    13    6   72 1    
    14    6   73 1    
    15    7    8 1    
    16    8    9 1    
    17    8   74 1    
    18    8   75 1    
    19    9   10 ar   
    20    9   14 ar   
    21   10   11 ar   
    22   10   76 1    
    23   11   12 ar   
    24   11   48 1    
    25   12   13 ar   
    26   12   77 1    
    27   13   14 ar   
    28   13   15 1    
    29   14   78 1    
    30   15   16 1    
    31   15   79 1    
    32   15   80 1    
    33   16   17 1    
    34   17   18 1    
    35   17   81 1    
    36   17   82 1    
    37   18   19 1    
    38   18   22 1    
    39   18   83 1    
    40   19   20 am   BACKBONE|DICT|INTERRES
    41   19   21 2    
    42   20   84 1    
    43   20   85 1    
    44   22   23 am   BACKBONE|DICT|INTERRES
    45   22   86 1    
    46   23   24 2    
    47   23   25 1    
    48   25   26 1    
    49   25   27 1    
    50   25   87 1    
    51   26   88 1    
    52   26   89 1    
    53   26   90 1    
    54   27   28 am   BACKBONE|DICT|INTERRES
    55   27   91 1    
    56   28   29 2    
    57   28   30 1    
    58   30   31 1    
    59   30   32 1    
    60   30   92 1    
    61   31   93 1    
    62   31   94 1    
    63   31   95 1    
    64   32   33 am   BACKBONE|DICT|INTERRES
    65   32   96 1    
    66   33   34 2    
    67   33   35 1    
    68   35   36 1    
    69   35   37 1    
    70   35   97 1    
    71   36   98 1    
    72   36   99 1    
    73   36  100 1    
    74   37   38 am   BACKBONE|DICT|INTERRES
    75   37  101 1    
    76   38   39 2    
    77   38   40 1    
    78   40   41 1    
    79   40   42 1    
    80   40  102 1    
    81   41  103 1    
    82   41  104 1    
    83   41  105 1    
    84   42   43 am   BACKBONE|DICT|INTERRES
    85   42  106 1    
    86   43   44 2    
    87   43   45 1    
    88   45   46 1    
    89   45   49 1    
    90   45  107 1    
    91   46   47 1    
    92   46  108 1    
    93   46  109 1    
    94   47   48 1    
    95   48  110 1    
    96   48  111 1    
    97   49   50 am   BACKBONE|DICT|INTERRES
    98   49  112 1    
    99   50   51 2    
   100   50   52 1    
   101   52   53 1    
   102   52   54 1    
   103   52  113 1    
   104   53  114 1    
   105   53  115 1    
   106   53  116 1    
   107   54   55 am   BACKBONE|DICT|INTERRES
   108   54  117 1    
   109   55   56 2    
   110   55   57 1    
   111   57   58 1    
   112   57   59 1    
   113   57  118 1    
   114   58  119 1    
   115   58  120 1    
   116   58  121 1    
   117   59   60 am   BACKBONE|DICT|INTERRES
   118   59  122 1    
   119   60   61 2    
   120   60   62 1    
   121   62   63 1    
   122   62   64 1    
   123   62  123 1    
   124   63  124 1    
   125   63  125 1    
   126   63  126 1    
   127   64   65 am   BACKBONE|DICT|INTERRES
   128   64  127 1    
   129   65   66 2    
@<TRIPOS>SUBSTRUCTURE
     1 UNK         1 GROUP             0       ****    0 ROOT    
