@<TRIPOS>MOLECULE
3R135
127   129    1
SMALL
USER_CHARGES


@<TRIPOS>ATOM
      1 CA        -83.5382   23.7640  -73.0610 C.3       0 UNK        -0.1998 
      2 C         -83.3892   25.1803  -73.5944 C.2       0 UNK         0.4909 
      3 O         -84.3852   25.8143  -73.9450 O.2       0 UNK        -0.5240 
      4 N         -82.1510   25.6792  -73.6842 N.am      1 UNK        -0.4739 
      5 CA        -81.7989   27.0254  -74.1571 C.3       1 UNK         0.0864 
      6 C6        -80.4959   27.5335  -73.4856 C.3       11 UNK        -0.0881 
      7 S7        -80.6986   27.6999  -71.6796 S.3       11 UNK        -0.2682 
      8 C8        -79.6950   29.1771  -71.3220 C.3       11 UNK         0.0289 
      9 C9        -78.2022   28.8976  -71.4331 C.ar      11 UNK        -0.0687 
     10 C10       -77.6008   27.9658  -70.5828 C.ar      11 UNK        -0.0823 
     11 C11       -76.2295   27.7078  -70.6616 C.ar      11 UNK        -0.0830 
     12 C12       -75.4525   28.4043  -71.5931 C.ar      11 UNK        -0.1021 
     13 C13       -76.0401   29.3483  -72.4419 C.ar      11 UNK        -0.0753 
     14 C14       -77.4162   29.5854  -72.3619 C.ar      11 UNK        -0.0933 
     15 C15       -75.2002   30.1054  -73.4591 C.3       11 UNK         0.0166 
     16 S16       -74.5780   31.6792  -72.7896 S.3       11 UNK        -0.2615 
     17 C17       -72.9920   31.1707  -72.0380 C.3       11 UNK        -0.0865 
     18 CA        -71.7781   31.4914  -72.9517 C.3       10 UNK         0.0862 
     19 C         -70.4267   31.2387  -72.2186 C.2       10 UNK         0.5551 
     20 N         -69.5108   30.4334  -72.7458 N.am      10 UNK        -0.7319 
     21 O         -70.2002   31.7957  -71.1473 O.2       10 UNK        -0.5018 
     22 N         -71.8912   30.8093  -74.2494 N.am      10 UNK        -0.4509 
     23 C         -71.3736   31.2424  -75.4040 C.2       10 UNK         0.4899 
     24 O         -70.7868   32.3179  -75.5334 O.2       10 UNK        -0.4839 
     25 CA        -71.5423   30.2980  -76.6125 C.3       9 UNK         0.0222 
     26 CB        -70.5338   30.5902  -77.7436 C.3       9 UNK        -0.1966 
     27 N         -71.5148   28.8725  -76.2499 N.am      9 UNK        -0.4218 
     28 C         -70.5159   28.2138  -75.6348 C.2       9 UNK         0.5020 
     29 O         -69.4766   28.7568  -75.2569 O.2       9 UNK        -0.5274 
     30 CA        -70.7049   26.7117  -75.3432 C.3       8 UNK         0.0270 
     31 CB        -70.8059   26.4749  -73.8263 C.3       8 UNK        -0.1976 
     32 N         -71.8762   26.1266  -76.0020 N.am      8 UNK        -0.4313 
     33 C         -71.9542   25.8556  -77.3147 C.2       8 UNK         0.5041 
     34 O         -71.0051   25.9825  -78.0891 O.2       8 UNK        -0.5577 
     35 CA        -73.3143   25.3938  -77.8784 C.3       7 UNK         0.0284 
     36 CB        -73.3063   23.8754  -78.1197 C.3       7 UNK        -0.1958 
     37 N         -74.4686   25.7360  -77.0419 N.am      7 UNK        -0.4454 
     38 C         -74.8425   26.9722  -76.6822 C.2       7 UNK         0.5089 
     39 O         -74.2781   27.9976  -77.0653 O.2       7 UNK        -0.5125 
     40 CA        -75.9882   27.0766  -75.6590 C.3       6 UNK         0.0408 
     41 CB        -77.3309   27.3023  -76.3657 C.3       6 UNK        -0.1791 
     42 N         -76.1069   25.9335  -74.7448 N.am      6 UNK        -0.4762 
     43 C         -75.1434   25.4432  -73.9521 C.2       6 UNK         0.5007 
     44 O         -73.9911   25.8774  -73.9524 O.2       6 UNK        -0.5032 
     45 CA        -75.4900   24.2289  -73.0586 C.3       5 UNK         0.0783 
     46 C46       -76.0537   24.6500  -71.6761 C.3       11 UNK        -0.0857 
     47 S47       -74.7478   25.3278  -70.5918 S.3       11 UNK        -0.2512 
     48 C48       -75.5992   26.6856  -69.7231 C.3       11 UNK         0.0225 
     49 N         -76.3049   23.1992  -73.7252 N.am      5 UNK        -0.4615 
     50 C         -77.5801   23.2801  -74.1278 C.2       4 UNK         0.5053 
     51 O         -78.2680   24.2949  -74.0078 O.2       4 UNK        -0.5105 
     52 CA        -78.1553   22.0074  -74.7775 C.3       4 UNK         0.0263 
     53 CB        -78.8770   21.1287  -73.7357 C.3       4 UNK        -0.1981 
     54 N         -79.0011   22.2866  -75.9479 N.am      4 UNK        -0.4224 
     55 C         -80.2203   22.8428  -75.9839 C.2       3 UNK         0.4895 
     56 O         -80.8929   23.1414  -74.9935 O.2       3 UNK        -0.5091 
     57 CA        -80.8057   23.0878  -77.3798 C.3       3 UNK         0.0250 
     58 CB        -81.5579   21.8492  -77.8965 C.3       3 UNK        -0.1996 
     59 N         -81.7206   24.2158  -77.2752 N.am      3 UNK        -0.4254 
     60 C         -81.9879   25.1206  -78.2228 C.2       2 UNK         0.5004 
     61 O         -81.5762   25.0452  -79.3810 O.2       2 UNK        -0.5226 
     62 CA        -82.8508   26.3263  -77.8003 C.3       2 UNK         0.0269 
     63 CB        -84.3143   26.1160  -78.2204 C.3       2 UNK        -0.1926 
     64 N         -82.7980   26.5840  -76.3563 N.am      2 UNK        -0.4687 
     65 C         -81.7234   27.0443  -75.6996 C.2       1 UNK         0.5165 
     66 O         -80.7019   27.4263  -76.2712 O.2       1 UNK        -0.5079 
     67 H67       -82.5827   23.3514  -72.7370 H         1 UNK         0.0900 
     68 H68       -83.9418   23.1127  -73.8356 H         1 UNK         0.0900 
     69 H69       -84.2197   23.7509  -72.2110 H         1 UNK         0.0900 
     70 H70       -81.3651   25.0824  -73.4590 H         1 UNK         0.2959 
     71 H71       -82.5994   27.7169  -73.8842 H         1 UNK         0.1079 
     72 H72       -80.2075   28.5028  -73.8967 H         1 UNK         0.0837 
     73 H73       -79.6632   26.8551  -73.6839 H         1 UNK         0.0837 
     74 H74       -79.9140   29.5100  -70.3065 H         1 UNK         0.0685 
     75 H75       -79.9966   29.9921  -71.9818 H         1 UNK         0.0685 
     76 H76       -78.2099   27.4374  -69.8620 H         1 UNK         0.1434 
     77 H77       -74.3929   28.2009  -71.6601 H         1 UNK         0.1329 
     78 H78       -77.8721   30.3139  -73.0184 H         1 UNK         0.1335 
     79 H79       -74.3723   29.4859  -73.8054 H         1 UNK         0.0680 
     80 H80       -75.8025   30.3227  -74.3426 H         1 UNK         0.0680 
     81 H81       -72.9027   31.7023  -71.0886 H         1 UNK         0.1032 
     82 H82       -73.0153   30.1109  -71.7827 H         1 UNK         0.1032 
     83 H83       -71.8010   32.5661  -73.1427 H         1 UNK         0.0461 
     84 H84       -68.6438   30.2923  -72.2526 H         1 UNK         0.3453 
     85 H85       -69.6560   29.9794  -73.6405 H         1 UNK         0.3453 
     86 H86       -72.3335   29.9040  -74.2384 H         1 UNK         0.2984 
     87 H87       -72.5421   30.4882  -77.0057 H         1 UNK         0.0554 
     88 H88       -70.6845   29.9221  -78.5915 H         1 UNK         0.0847 
     89 H89       -69.5032   30.4761  -77.4058 H         1 UNK         0.0847 
     90 H90       -70.6434   31.6103  -78.1135 H         1 UNK         0.0847 
     91 H91       -72.3491   28.3521  -76.5048 H         1 UNK         0.3141 
     92 H92       -69.8140   26.1963  -75.7083 H         1 UNK         0.0743 
     93 H93       -69.9006   26.8087  -73.3173 H         1 UNK         0.0784 
     94 H94       -71.6428   27.0188  -73.3865 H         1 UNK         0.0784 
     95 H95       -70.9351   25.4174  -73.5952 H         1 UNK         0.0784 
     96 H96       -72.6970   25.9903  -75.4165 H         1 UNK         0.3213 
     97 H97       -73.4485   25.8947  -78.8395 H         1 UNK         0.0855 
     98 H98       -72.4763   23.5875  -78.7669 H         1 UNK         0.0814 
     99 H99       -74.2230   23.5444  -78.6081 H         1 UNK         0.0814 
    100 H100      -73.1997   23.3189  -77.1876 H         1 UNK         0.0814 
    101 H101      -74.9925   24.9645  -76.6559 H         1 UNK         0.3105 
    102 H102      -75.7837   27.9508  -75.0442 H         1 UNK         0.0547 
    103 H103      -77.6441   26.4269  -76.9358 H         1 UNK         0.0837 
    104 H104      -78.1153   27.5313  -75.6450 H         1 UNK         0.0837 
    105 H105      -77.2764   28.1436  -77.0579 H         1 UNK         0.0837 
    106 H106      -77.0276   25.5093  -74.6507 H         1 UNK         0.3020 
    107 H107      -74.5372   23.7276  -72.8764 H         1 UNK         0.1245 
    108 H108      -76.4741   23.7832  -71.1640 H         1 UNK         0.0781 
    109 H109      -76.8790   25.3542  -71.7921 H         1 UNK         0.0781 
    110 H110      -74.8807   27.1951  -69.0797 H         1 UNK         0.0836 
    111 H111      -76.3490   26.2530  -69.0589 H         1 UNK         0.0836 
    112 H112      -75.8204   22.3270  -73.8865 H         1 UNK         0.3022 
    113 H113      -77.3175   21.4269  -75.1673 H         1 UNK         0.0747 
    114 H114      -79.3016   20.2355  -74.1938 H         1 UNK         0.0793 
    115 H115      -78.1846   20.7984  -72.9605 H         1 UNK         0.0793 
    116 H116      -79.6832   21.6655  -73.2348 H         1 UNK         0.0793 
    117 H117      -78.5618   22.0875  -76.8361 H         1 UNK         0.3047 
    118 H118      -79.9936   23.3420  -78.0646 H         1 UNK         0.0822 
    119 H119      -80.8905   20.9904  -77.9781 H         1 UNK         0.0807 
    120 H120      -81.9806   22.0264  -78.8856 H         1 UNK         0.0807 
    121 H121      -82.3738   21.5678  -77.2294 H         1 UNK         0.0807 
    122 H122      -82.0571   24.3790  -76.3344 H         1 UNK         0.2946 
    123 H123      -82.4613   27.2040  -78.3212 H         1 UNK         0.1144 
    124 H124      -84.3908   25.9429  -79.2949 H         1 UNK         0.0793 
    125 H125      -84.9228   26.9909  -77.9904 H         1 UNK         0.0793 
    126 H126      -84.7589   25.2556  -77.7186 H         1 UNK         0.0793 
    127 H127      -83.5966   26.2947  -75.8007 H         1 UNK         0.2896 
@<TRIPOS>BOND
     1    1    2 1    
     2    1   67 1    
     3    1   68 1    
     4    1   69 1    
     5    2    3 2    
     6    2    4 am   BACKBONE|DICT|INTERRES
     7    4    5 1    
     8    4   70 1    
     9    5    6 1    
    10    5   65 1    
    11    5   71 1    
    12    6    7 1    
    13    6   72 1    
    14    6   73 1    
    15    7    8 1    
    16    8    9 1    
    17    8   74 1    
    18    8   75 1    
    19    9   10 ar   
    20    9   14 ar   
    21   10   11 ar   
    22   10   76 1    
    23   11   12 ar   
    24   11   48 1    
    25   12   13 ar   
    26   12   77 1    
    27   13   14 ar   
    28   13   15 1    
    29   14   78 1    
    30   15   16 1    
    31   15   79 1    
    32   15   80 1    
    33   16   17 1    
    34   17   18 1    
    35   17   81 1    
    36   17   82 1    
    37   18   19 1    
    38   18   22 1    
    39   18   83 1    
    40   19   20 am   BACKBONE|DICT|INTERRES
    41   19   21 2    
    42   20   84 1    
    43   20   85 1    
    44   22   23 am   BACKBONE|DICT|INTERRES
    45   22   86 1    
    46   23   24 2    
    47   23   25 1    
    48   25   26 1    
    49   25   27 1    
    50   25   87 1    
    51   26   88 1    
    52   26   89 1    
    53   26   90 1    
    54   27   28 am   BACKBONE|DICT|INTERRES
    55   27   91 1    
    56   28   29 2    
    57   28   30 1    
    58   30   31 1    
    59   30   32 1    
    60   30   92 1    
    61   31   93 1    
    62   31   94 1    
    63   31   95 1    
    64   32   33 am   BACKBONE|DICT|INTERRES
    65   32   96 1    
    66   33   34 2    
    67   33   35 1    
    68   35   36 1    
    69   35   37 1    
    70   35   97 1    
    71   36   98 1    
    72   36   99 1    
    73   36  100 1    
    74   37   38 am   BACKBONE|DICT|INTERRES
    75   37  101 1    
    76   38   39 2    
    77   38   40 1    
    78   40   41 1    
    79   40   42 1    
    80   40  102 1    
    81   41  103 1    
    82   41  104 1    
    83   41  105 1    
    84   42   43 am   BACKBONE|DICT|INTERRES
    85   42  106 1    
    86   43   44 2    
    87   43   45 1    
    88   45   46 1    
    89   45   49 1    
    90   45  107 1    
    91   46   47 1    
    92   46  108 1    
    93   46  109 1    
    94   47   48 1    
    95   48  110 1    
    96   48  111 1    
    97   49   50 am   BACKBONE|DICT|INTERRES
    98   49  112 1    
    99   50   51 2    
   100   50   52 1    
   101   52   53 1    
   102   52   54 1    
   103   52  113 1    
   104   53  114 1    
   105   53  115 1    
   106   53  116 1    
   107   54   55 am   BACKBONE|DICT|INTERRES
   108   54  117 1    
   109   55   56 2    
   110   55   57 1    
   111   57   58 1    
   112   57   59 1    
   113   57  118 1    
   114   58  119 1    
   115   58  120 1    
   116   58  121 1    
   117   59   60 am   BACKBONE|DICT|INTERRES
   118   59  122 1    
   119   60   61 2    
   120   60   62 1    
   121   62   63 1    
   122   62   64 1    
   123   62  123 1    
   124   63  124 1    
   125   63  125 1    
   126   63  126 1    
   127   64   65 am   BACKBONE|DICT|INTERRES
   128   64  127 1    
   129   65   66 2    
@<TRIPOS>SUBSTRUCTURE
     1 UNK         1 GROUP             0       ****    0 ROOT    
