@<TRIPOS>MOLECULE
3R135
127   129    1
SMALL
USER_CHARGES


@<TRIPOS>ATOM
      1 CA        -80.9432   28.6297  -76.3039 C.3       0 UNK        -0.1998 
      2 C         -80.7170   27.7054  -75.1184 C.2       0 UNK         0.4909 
      3 O         -79.8350   26.8448  -75.1630 O.2       0 UNK        -0.5240 
      4 N         -81.5070   27.8785  -74.0533 N.am      1 UNK        -0.4739 
      5 CA        -81.4844   27.0267  -72.8598 C.3       1 UNK         0.0864 
      6 C6        -82.2715   27.6397  -71.6763 C.3       11 UNK        -0.0881 
      7 S7        -81.8370   29.3753  -71.3153 S.3       11 UNK        -0.2682 
      8 C8        -80.2636   29.2093  -70.4053 C.3       11 UNK         0.0289 
      9 C9        -79.0209   29.2043  -71.2958 C.ar      11 UNK        -0.0687 
     10 C10       -78.8951   30.0905  -72.3741 C.ar      11 UNK        -0.0823 
     11 C11       -77.7185   30.1468  -73.1298 C.ar      11 UNK        -0.0830 
     12 C12       -76.6516   29.3108  -72.7835 C.ar      11 UNK        -0.1021 
     13 C13       -76.7590   28.4234  -71.7108 C.ar      11 UNK        -0.0753 
     14 C14       -77.9481   28.3649  -70.9784 C.ar      11 UNK        -0.0933 
     15 C15       -75.5664   27.5680  -71.3195 C.3       11 UNK         0.0166 
     16 S16       -74.5876   28.4061  -70.0363 S.3       11 UNK        -0.2615 
     17 C17       -72.9382   27.6667  -70.2818 C.3       11 UNK        -0.0865 
     18 CA        -71.9598   28.6537  -70.9733 C.3       10 UNK         0.0862 
     19 C         -70.4943   28.1286  -70.9245 C.2       10 UNK         0.5551 
     20 N         -69.7958   27.9900  -72.0447 N.am      10 UNK        -0.7319 
     21 O         -69.9771   27.8514  -69.8451 O.2       10 UNK        -0.5018 
     22 N         -72.4285   29.0196  -72.3205 N.am      10 UNK        -0.4509 
     23 C         -72.1609   30.1631  -72.9586 C.2       10 UNK         0.4899 
     24 O         -71.4985   31.0815  -72.4735 O.2       10 UNK        -0.4839 
     25 CA        -72.7019   30.2703  -74.3991 C.3       9 UNK         0.0222 
     26 CB        -72.5115   31.6729  -75.0046 C.3       9 UNK        -0.1966 
     27 N         -72.0836   29.2768  -75.2832 N.am      9 UNK        -0.4218 
     28 C         -72.3904   27.9741  -75.3074 C.2       9 UNK         0.5020 
     29 O         -73.2453   27.4633  -74.5815 O.2       9 UNK        -0.5274 
     30 CA        -71.5533   27.0877  -76.2318 C.3       8 UNK         0.0270 
     31 CB        -70.3353   26.5305  -75.4673 C.3       8 UNK        -0.1976 
     32 N         -72.3827   25.9987  -76.7458 N.am      8 UNK        -0.4313 
     33 C         -72.0615   25.2229  -77.7904 C.2       8 UNK         0.5041 
     34 O         -71.0097   25.3259  -78.4239 O.2       8 UNK        -0.5577 
     35 CA        -73.0928   24.1741  -78.2282 C.3       7 UNK         0.0284 
     36 CB        -73.2257   23.0432  -77.1934 C.3       7 UNK        -0.1958 
     37 N         -74.3903   24.8056  -78.4615 N.am      7 UNK        -0.4454 
     38 C         -74.7581   25.3658  -79.6234 C.2       7 UNK         0.5089 
     39 O         -74.0808   25.3183  -80.6508 O.2       7 UNK        -0.5125 
     40 CA        -76.1075   26.1090  -79.6594 C.3       6 UNK         0.0408 
     41 CB        -77.2143   25.1848  -80.1916 C.3       6 UNK        -0.1791 
     42 N         -76.5126   26.6372  -78.3568 N.am      6 UNK        -0.4762 
     43 C         -75.8996   27.6326  -77.6982 C.2       6 UNK         0.5007 
     44 O         -74.9675   28.2894  -78.1621 O.2       6 UNK        -0.5032 
     45 CA        -76.3932   27.9069  -76.2620 C.3       5 UNK         0.0783 
     46 C46       -77.3718   29.1102  -76.2169 C.3       11 UNK        -0.0857 
     47 S47       -76.5529   30.6453  -75.6763 S.3       11 UNK        -0.2512 
     48 C48       -77.6133   31.1568  -74.2752 C.3       11 UNK         0.0225 
     49 N         -76.9590   26.7136  -75.6159 N.am      5 UNK        -0.4615 
     50 C         -76.2655   25.5991  -75.3396 C.2       4 UNK         0.5053 
     51 O         -75.0982   25.4165  -75.6816 O.2       4 UNK        -0.5105 
     52 CA        -77.0077   24.4805  -74.6045 C.3       4 UNK         0.0263 
     53 CB        -77.0627   24.7663  -73.0962 C.3       4 UNK        -0.1981 
     54 N         -78.3640   24.3064  -75.1115 N.am      4 UNK        -0.4224 
     55 C         -78.6995   23.6218  -76.2123 C.2       3 UNK         0.4895 
     56 O         -77.8772   23.1085  -76.9726 O.2       3 UNK        -0.5091 
     57 CA        -80.2120   23.4876  -76.4983 C.3       3 UNK         0.0250 
     58 CB        -80.5513   22.2443  -77.3468 C.3       3 UNK        -0.1996 
     59 N         -81.0335   23.5344  -75.2776 N.am      3 UNK        -0.4254 
     60 C         -80.9754   22.7159  -74.2132 C.2       2 UNK         0.5004 
     61 O         -80.2967   21.6884  -74.1739 O.2       2 UNK        -0.5226 
     62 CA        -81.7524   23.1722  -72.9582 C.3       2 UNK         0.0269 
     63 CB        -81.4585   22.2951  -71.7261 C.3       2 UNK        -0.1926 
     64 N         -81.4507   24.5719  -72.6244 N.am      2 UNK        -0.4687 
     65 C         -82.0316   25.6272  -73.2087 C.2       1 UNK         0.5165 
     66 O         -82.9476   25.5161  -74.0285 O.2       1 UNK        -0.5079 
     67 H67       -80.5312   28.1926  -77.2131 H         1 UNK         0.0900 
     68 H68       -80.4589   29.5908  -76.1344 H         1 UNK         0.0900 
     69 H69       -82.0067   28.8036  -76.4662 H         1 UNK         0.0900 
     70 H70       -82.2164   28.5969  -74.0629 H         1 UNK         0.2959 
     71 H71       -80.4403   26.9204  -72.5567 H         1 UNK         0.1079 
     72 H72       -83.3436   27.6172  -71.8836 H         1 UNK         0.0837 
     73 H73       -82.1304   27.0445  -70.7721 H         1 UNK         0.0837 
     74 H74       -80.3003   28.3149  -69.7816 H         1 UNK         0.0685 
     75 H75       -80.1785   30.0533  -69.7200 H         1 UNK         0.0685 
     76 H76       -79.7115   30.7583  -72.6121 H         1 UNK         0.1434 
     77 H77       -75.7238   29.3594  -73.3336 H         1 UNK         0.1329 
     78 H78       -78.0184   27.6947  -70.1326 H         1 UNK         0.1335 
     79 H79       -75.8976   26.5996  -70.9427 H         1 UNK         0.0680 
     80 H80       -74.9499   27.3691  -72.1979 H         1 UNK         0.0680 
     81 H81       -72.5653   27.3855  -69.2949 H         1 UNK         0.1032 
     82 H82       -73.0175   26.7366  -70.8476 H         1 UNK         0.1032 
     83 H83       -71.9509   29.5661  -70.3737 H         1 UNK         0.0461 
     84 H84       -68.8466   27.6548  -71.9974 H         1 UNK         0.3453 
     85 H85       -70.2054   28.2378  -72.9290 H         1 UNK         0.3453 
     86 H86       -72.9206   28.3005  -72.8422 H         1 UNK         0.2984 
     87 H87       -73.7751   30.0783  -74.3580 H         1 UNK         0.0554 
     88 H88       -72.9832   32.4333  -74.3807 H         1 UNK         0.0847 
     89 H89       -72.9672   31.7422  -75.9927 H         1 UNK         0.0847 
     90 H90       -71.4573   31.9362  -75.0996 H         1 UNK         0.0847 
     91 H91       -71.3393   29.6107  -75.8793 H         1 UNK         0.3141 
     92 H92       -71.2109   27.6894  -77.0766 H         1 UNK         0.0743 
     93 H93       -69.7118   27.3371  -75.0804 H         1 UNK         0.0784 
     94 H94       -70.6415   25.9160  -74.6195 H         1 UNK         0.0784 
     95 H95       -69.7000   25.9199  -76.1087 H         1 UNK         0.0784 
     96 H96       -73.2753   25.8721  -76.2683 H         1 UNK         0.3213 
     97 H97       -72.7401   23.7237  -79.1590 H         1 UNK         0.0855 
     98 H98       -73.5399   23.4081  -76.2158 H         1 UNK         0.0814 
     99 H99       -72.2715   22.5333  -77.0553 H         1 UNK         0.0814 
    100 H100      -73.9490   22.2947  -77.5173 H         1 UNK         0.0814 
    101 H101      -74.9743   24.9429  -77.6439 H         1 UNK         0.3105 
    102 H102      -76.0036   26.9509  -80.3471 H         1 UNK         0.0547 
    103 H103      -77.3752   24.3275  -79.5363 H         1 UNK         0.0837 
    104 H104      -78.1618   25.7144  -80.2922 H         1 UNK         0.0837 
    105 H105      -76.9564   24.7961  -81.1777 H         1 UNK         0.0837 
    106 H106      -77.2634   26.1542  -77.8844 H         1 UNK         0.3020 
    107 H107      -75.5032   28.1556  -75.6812 H         1 UNK         0.1245 
    108 H108      -78.1759   28.9089  -75.5135 H         1 UNK         0.0781 
    109 H109      -77.8670   29.2864  -77.1741 H         1 UNK         0.0781 
    110 H110      -77.2246   32.0929  -73.8727 H         1 UNK         0.0836 
    111 H111      -78.6065   31.3804  -74.6681 H         1 UNK         0.0836 
    112 H112      -77.9391   26.7621  -75.3474 H         1 UNK         0.3022 
    113 H113      -76.4542   23.5509  -74.7561 H         1 UNK         0.0747 
    114 H114      -76.0564   24.8607  -72.6866 H         1 UNK         0.0793 
    115 H115      -77.5563   23.9573  -72.5574 H         1 UNK         0.0793 
    116 H116      -77.5970   25.6920  -72.8771 H         1 UNK         0.0793 
    117 H117      -79.1020   24.7915  -74.6195 H         1 UNK         0.3047 
    118 H118      -80.4838   24.3701  -77.0797 H         1 UNK         0.0822 
    119 H119      -80.0470   22.2805  -78.3133 H         1 UNK         0.0807 
    120 H120      -81.6213   22.1780  -77.5437 H         1 UNK         0.0807 
    121 H121      -80.2422   21.3217  -76.8547 H         1 UNK         0.0807 
    122 H122      -81.6394   24.3436  -75.1917 H         1 UNK         0.2946 
    123 H123      -82.8160   23.0725  -73.1887 H         1 UNK         0.1144 
    124 H124      -81.7166   21.2525  -71.9170 H         1 UNK         0.0793 
    125 H125      -82.0408   22.6166  -70.8624 H         1 UNK         0.0793 
    126 H126      -80.4035   22.3253  -71.4505 H         1 UNK         0.0793 
    127 H127      -80.7002   24.7226  -71.9651 H         1 UNK         0.2896 
@<TRIPOS>BOND
     1    1    2 1    
     2    1   67 1    
     3    1   68 1    
     4    1   69 1    
     5    2    3 2    
     6    2    4 am   BACKBONE|DICT|INTERRES
     7    4    5 1    
     8    4   70 1    
     9    5    6 1    
    10    5   65 1    
    11    5   71 1    
    12    6    7 1    
    13    6   72 1    
    14    6   73 1    
    15    7    8 1    
    16    8    9 1    
    17    8   74 1    
    18    8   75 1    
    19    9   10 ar   
    20    9   14 ar   
    21   10   11 ar   
    22   10   76 1    
    23   11   12 ar   
    24   11   48 1    
    25   12   13 ar   
    26   12   77 1    
    27   13   14 ar   
    28   13   15 1    
    29   14   78 1    
    30   15   16 1    
    31   15   79 1    
    32   15   80 1    
    33   16   17 1    
    34   17   18 1    
    35   17   81 1    
    36   17   82 1    
    37   18   19 1    
    38   18   22 1    
    39   18   83 1    
    40   19   20 am   BACKBONE|DICT|INTERRES
    41   19   21 2    
    42   20   84 1    
    43   20   85 1    
    44   22   23 am   BACKBONE|DICT|INTERRES
    45   22   86 1    
    46   23   24 2    
    47   23   25 1    
    48   25   26 1    
    49   25   27 1    
    50   25   87 1    
    51   26   88 1    
    52   26   89 1    
    53   26   90 1    
    54   27   28 am   BACKBONE|DICT|INTERRES
    55   27   91 1    
    56   28   29 2    
    57   28   30 1    
    58   30   31 1    
    59   30   32 1    
    60   30   92 1    
    61   31   93 1    
    62   31   94 1    
    63   31   95 1    
    64   32   33 am   BACKBONE|DICT|INTERRES
    65   32   96 1    
    66   33   34 2    
    67   33   35 1    
    68   35   36 1    
    69   35   37 1    
    70   35   97 1    
    71   36   98 1    
    72   36   99 1    
    73   36  100 1    
    74   37   38 am   BACKBONE|DICT|INTERRES
    75   37  101 1    
    76   38   39 2    
    77   38   40 1    
    78   40   41 1    
    79   40   42 1    
    80   40  102 1    
    81   41  103 1    
    82   41  104 1    
    83   41  105 1    
    84   42   43 am   BACKBONE|DICT|INTERRES
    85   42  106 1    
    86   43   44 2    
    87   43   45 1    
    88   45   46 1    
    89   45   49 1    
    90   45  107 1    
    91   46   47 1    
    92   46  108 1    
    93   46  109 1    
    94   47   48 1    
    95   48  110 1    
    96   48  111 1    
    97   49   50 am   BACKBONE|DICT|INTERRES
    98   49  112 1    
    99   50   51 2    
   100   50   52 1    
   101   52   53 1    
   102   52   54 1    
   103   52  113 1    
   104   53  114 1    
   105   53  115 1    
   106   53  116 1    
   107   54   55 am   BACKBONE|DICT|INTERRES
   108   54  117 1    
   109   55   56 2    
   110   55   57 1    
   111   57   58 1    
   112   57   59 1    
   113   57  118 1    
   114   58  119 1    
   115   58  120 1    
   116   58  121 1    
   117   59   60 am   BACKBONE|DICT|INTERRES
   118   59  122 1    
   119   60   61 2    
   120   60   62 1    
   121   62   63 1    
   122   62   64 1    
   123   62  123 1    
   124   63  124 1    
   125   63  125 1    
   126   63  126 1    
   127   64   65 am   BACKBONE|DICT|INTERRES
   128   64  127 1    
   129   65   66 2    
@<TRIPOS>SUBSTRUCTURE
     1 UNK         1 GROUP             0       ****    0 ROOT    
