@<TRIPOS>MOLECULE
3R135
127   129    1
SMALL
USER_CHARGES


@<TRIPOS>ATOM
      1 CA        -84.9344   30.9059  -77.6480 C.3       0 UNK        -0.1998 
      2 C         -84.1197   30.0532  -76.6865 C.2       0 UNK         0.4909 
      3 O         -84.6804   29.4995  -75.7398 O.2       0 UNK        -0.5240 
      4 N         -82.8033   29.9538  -76.9219 N.am      1 UNK        -0.4739 
      5 CA        -81.8407   29.1442  -76.1598 C.3       1 UNK         0.0864 
      6 C6        -81.7501   29.5793  -74.6665 C.3       11 UNK        -0.0881 
      7 S7        -80.0417   29.5460  -74.0380 S.3       11 UNK        -0.2682 
      8 C8        -80.2578   28.6839  -72.4495 C.3       11 UNK         0.0289 
      9 C9        -78.9352   28.4471  -71.7290 C.ar      11 UNK        -0.0687 
     10 C10       -78.6107   27.1679  -71.2678 C.ar      11 UNK        -0.0823 
     11 C11       -77.4266   26.9453  -70.5580 C.ar      11 UNK        -0.0830 
     12 C12       -76.5520   28.0097  -70.3244 C.ar      11 UNK        -0.1021 
     13 C13       -76.8571   29.2913  -70.7908 C.ar      11 UNK        -0.0753 
     14 C14       -78.0533   29.5055  -71.4827 C.ar      11 UNK        -0.0933 
     15 C15       -75.9084   30.4512  -70.5293 C.3       11 UNK         0.0166 
     16 S16       -74.7126   30.6601  -71.8843 S.3       11 UNK        -0.2615 
     17 C17       -73.5472   29.2945  -71.5493 C.3       11 UNK        -0.0865 
     18 CA        -72.2387   29.4211  -72.3749 C.3       10 UNK         0.0862 
     19 C         -71.1573   28.3922  -71.9297 C.2       10 UNK         0.5551 
     20 N         -70.4176   27.7620  -72.8358 N.am      10 UNK        -0.7319 
     21 O         -70.9694   28.1709  -70.7358 O.2       10 UNK        -0.5018 
     22 N         -72.5162   29.3612  -73.8167 N.am      10 UNK        -0.4509 
     23 C         -72.0197   30.1895  -74.7407 C.2       10 UNK         0.4899 
     24 O         -71.3013   31.1573  -74.4830 O.2       10 UNK        -0.4839 
     25 CA        -72.3831   29.8637  -76.2029 C.3       9 UNK         0.0222 
     26 CB        -71.5633   30.6803  -77.2245 C.3       9 UNK        -0.1966 
     27 N         -72.3096   28.4293  -76.5120 N.am      9 UNK        -0.4218 
     28 C         -71.2397   27.6250  -76.3947 C.2       9 UNK         0.5020 
     29 O         -70.1511   28.0080  -75.9630 O.2       9 UNK        -0.5274 
     30 CA        -71.3883   26.1392  -76.7859 C.3       8 UNK         0.0270 
     31 CB        -70.9717   25.2284  -75.6173 C.3       8 UNK        -0.1976 
     32 N         -72.7378   25.7640  -77.2120 N.am      8 UNK        -0.4313 
     33 C         -73.2903   26.0321  -78.4019 C.2       8 UNK         0.5041 
     34 O         -72.6887   26.5672  -79.3331 O.2       8 UNK        -0.5577 
     35 CA        -74.7880   25.7036  -78.5509 C.3       7 UNK         0.0284 
     36 CB        -74.9910   24.2469  -78.9964 C.3       7 UNK        -0.1958 
     37 N         -75.5498   25.9625  -77.3220 N.am      7 UNK        -0.4454 
     38 C         -75.6920   27.1740  -76.7620 C.2       7 UNK         0.5089 
     39 O         -75.2322   28.2086  -77.2442 O.2       7 UNK        -0.5125 
     40 CA        -76.4228   27.2360  -75.4143 C.3       6 UNK         0.0408 
     41 CB        -77.9391   27.2338  -75.6285 C.3       6 UNK        -0.1791 
     42 N         -76.0370   26.1317  -74.5341 N.am      6 UNK        -0.4762 
     43 C         -74.8423   26.0480  -73.9300 C.2       6 UNK         0.5007 
     44 O         -73.9761   26.9183  -74.0212 O.2       6 UNK        -0.5032 
     45 CA        -74.5206   24.7545  -73.1527 C.3       5 UNK         0.0783 
     46 C46       -74.9182   24.8412  -71.6557 C.3       11 UNK        -0.0857 
     47 S47       -76.6604   24.3954  -71.3251 S.3       11 UNK        -0.2512 
     48 C48       -77.1188   25.5612  -70.0100 C.3       11 UNK         0.0225 
     49 N         -75.0613   23.5569  -73.8009 N.am      5 UNK        -0.4615 
     50 C         -74.7227   23.1125  -75.0151 C.2       4 UNK         0.5053 
     51 O         -73.8464   23.6265  -75.7065 O.2       4 UNK        -0.5105 
     52 CA        -75.5205   21.9212  -75.5700 C.3       4 UNK         0.0263 
     53 CB        -74.8001   20.6019  -75.2516 C.3       4 UNK        -0.1981 
     54 N         -76.9059   21.8507  -75.0891 N.am      4 UNK        -0.4224 
     55 C         -77.8478   22.7813  -75.3042 C.2       3 UNK         0.4895 
     56 O         -77.6334   23.8355  -75.9077 O.2       3 UNK        -0.5091 
     57 CA        -79.2534   22.4388  -74.7730 C.3       3 UNK         0.0250 
     58 CB        -79.2760   22.2740  -73.2375 C.3       3 UNK        -0.1996 
     59 N         -80.3000   23.3628  -75.2334 N.am      3 UNK        -0.4254 
     60 C         -80.5342   24.6262  -74.8472 C.2       2 UNK         0.5004 
     61 O         -79.9198   25.2256  -73.9628 O.2       2 UNK        -0.5226 
     62 CA        -81.7070   25.3207  -75.5485 C.3       2 UNK         0.0269 
     63 CB        -83.0453   24.9191  -74.8993 C.3       2 UNK        -0.1926 
     64 N         -81.5503   26.7747  -75.4889 N.am      2 UNK        -0.4687 
     65 C         -82.0715   27.6269  -76.3804 C.2       1 UNK         0.5165 
     66 O         -82.6993   27.2464  -77.3735 O.2       1 UNK        -0.5079 
     67 H67       -85.7018   30.2994  -78.1282 H         1 UNK         0.0900 
     68 H68       -84.3145   31.3478  -78.4280 H         1 UNK         0.0900 
     69 H69       -85.4267   31.7142  -77.1080 H         1 UNK         0.0900 
     70 H70       -82.4197   30.4141  -77.7359 H         1 UNK         0.2959 
     71 H71       -80.8809   29.3531  -76.6354 H         1 UNK         0.1079 
     72 H72       -82.0875   30.6109  -74.5535 H         1 UNK         0.0837 
     73 H73       -82.4179   28.9910  -74.0339 H         1 UNK         0.0837 
     74 H74       -80.7688   27.7365  -72.6283 H         1 UNK         0.0685 
     75 H75       -80.9100   29.2759  -71.8061 H         1 UNK         0.0685 
     76 H76       -79.2845   26.3412  -71.4509 H         1 UNK         0.1434 
     77 H77       -75.6368   27.8442  -69.7728 H         1 UNK         0.1329 
     78 H78       -78.2984   30.4989  -71.8329 H         1 UNK         0.1335 
     79 H79       -76.4786   31.3753  -70.4224 H         1 UNK         0.0680 
     80 H80       -75.3808   30.3117  -69.5845 H         1 UNK         0.0680 
     81 H81       -73.3260   29.2959  -70.4804 H         1 UNK         0.1032 
     82 H82       -74.0420   28.3460  -71.7603 H         1 UNK         0.1032 
     83 H83       -71.8079   30.3946  -72.1349 H         1 UNK         0.0461 
     84 H84       -70.5168   27.9682  -73.8212 H         1 UNK         0.3453 
     85 H85       -69.7165   27.1081  -72.5271 H         1 UNK         0.3453 
     86 H86       -73.0703   28.5590  -74.1082 H         1 UNK         0.2984 
     87 H87       -73.4300   30.1458  -76.3221 H         1 UNK         0.0554 
     88 H88       -71.8638   30.4516  -78.2470 H         1 UNK         0.0847 
     89 H89       -70.4945   30.4823  -77.1365 H         1 UNK         0.0847 
     90 H90       -71.7089   31.7511  -77.0772 H         1 UNK         0.0847 
     91 H91       -73.1774   28.0242  -76.8448 H         1 UNK         0.3141 
     92 H92       -70.7048   25.9584  -77.6178 H         1 UNK         0.0743 
     93 H93       -69.9384   25.4130  -75.3206 H         1 UNK         0.0784 
     94 H94       -71.5972   25.3930  -74.7394 H         1 UNK         0.0784 
     95 H95       -71.0447   24.1749  -75.8884 H         1 UNK         0.0784 
     96 H96       -73.2853   25.2256  -76.5438 H         1 UNK         0.3213 
     97 H97       -75.1920   26.3554  -79.3287 H         1 UNK         0.0855 
     98 H98       -74.5114   24.0676  -79.9595 H         1 UNK         0.0814 
     99 H99       -76.0484   24.0078  -79.1112 H         1 UNK         0.0814 
    100 H100      -74.5608   23.5410  -78.2867 H         1 UNK         0.0814 
    101 H101      -75.9761   25.1689  -76.8587 H         1 UNK         0.3105 
    102 H102      -76.1553   28.1737  -74.9215 H         1 UNK         0.0547 
    103 H103      -78.2781   26.3570  -76.1797 H         1 UNK         0.0837 
    104 H104      -78.4575   27.2486  -74.6718 H         1 UNK         0.0837 
    105 H105      -78.2551   28.1144  -76.1885 H         1 UNK         0.0837 
    106 H106      -76.6898   25.3618  -74.4529 H         1 UNK         0.3020 
    107 H107      -73.4327   24.6603  -73.1874 H         1 UNK         0.1245 
    108 H108      -74.6961   25.8293  -71.2483 H         1 UNK         0.0781 
    109 H109      -74.3004   24.1478  -71.0832 H         1 UNK         0.0781 
    110 H110      -76.3271   25.5985  -69.2600 H         1 UNK         0.0836 
    111 H111      -78.0025   25.1782  -69.4976 H         1 UNK         0.0836 
    112 H112      -75.8037   23.0896  -73.3006 H         1 UNK         0.3022 
    113 H113      -75.5586   22.0342  -76.6550 H         1 UNK         0.0747 
    114 H114      -75.2961   19.7536  -75.7238 H         1 UNK         0.0793 
    115 H115      -73.7734   20.6196  -75.6206 H         1 UNK         0.0793 
    116 H116      -74.7572   20.4129  -74.1782 H         1 UNK         0.0793 
    117 H117      -77.1641   21.0091  -74.5939 H         1 UNK         0.3047 
    118 H118      -79.5137   21.4729  -75.2089 H         1 UNK         0.0822 
    119 H119      -78.6151   21.4714  -72.9095 H         1 UNK         0.0807 
    120 H120      -80.2766   22.0278  -72.8822 H         1 UNK         0.0807 
    121 H121      -78.9573   23.1810  -72.7251 H         1 UNK         0.0807 
    122 H122      -80.8768   22.9949  -75.9771 H         1 UNK         0.2946 
    123 H123      -81.7026   25.0041  -76.5945 H         1 UNK         0.1144 
    124 H124      -83.0925   25.2314  -73.8553 H         1 UNK         0.0793 
    125 H125      -83.1883   23.8381  -74.9239 H         1 UNK         0.0793 
    126 H126      -83.8915   25.3670  -75.4206 H         1 UNK         0.0793 
    127 H127      -80.9712   27.1144  -74.7306 H         1 UNK         0.2896 
@<TRIPOS>BOND
     1    1    2 1    
     2    1   67 1    
     3    1   68 1    
     4    1   69 1    
     5    2    3 2    
     6    2    4 am   BACKBONE|DICT|INTERRES
     7    4    5 1    
     8    4   70 1    
     9    5    6 1    
    10    5   65 1    
    11    5   71 1    
    12    6    7 1    
    13    6   72 1    
    14    6   73 1    
    15    7    8 1    
    16    8    9 1    
    17    8   74 1    
    18    8   75 1    
    19    9   10 ar   
    20    9   14 ar   
    21   10   11 ar   
    22   10   76 1    
    23   11   12 ar   
    24   11   48 1    
    25   12   13 ar   
    26   12   77 1    
    27   13   14 ar   
    28   13   15 1    
    29   14   78 1    
    30   15   16 1    
    31   15   79 1    
    32   15   80 1    
    33   16   17 1    
    34   17   18 1    
    35   17   81 1    
    36   17   82 1    
    37   18   19 1    
    38   18   22 1    
    39   18   83 1    
    40   19   20 am   BACKBONE|DICT|INTERRES
    41   19   21 2    
    42   20   84 1    
    43   20   85 1    
    44   22   23 am   BACKBONE|DICT|INTERRES
    45   22   86 1    
    46   23   24 2    
    47   23   25 1    
    48   25   26 1    
    49   25   27 1    
    50   25   87 1    
    51   26   88 1    
    52   26   89 1    
    53   26   90 1    
    54   27   28 am   BACKBONE|DICT|INTERRES
    55   27   91 1    
    56   28   29 2    
    57   28   30 1    
    58   30   31 1    
    59   30   32 1    
    60   30   92 1    
    61   31   93 1    
    62   31   94 1    
    63   31   95 1    
    64   32   33 am   BACKBONE|DICT|INTERRES
    65   32   96 1    
    66   33   34 2    
    67   33   35 1    
    68   35   36 1    
    69   35   37 1    
    70   35   97 1    
    71   36   98 1    
    72   36   99 1    
    73   36  100 1    
    74   37   38 am   BACKBONE|DICT|INTERRES
    75   37  101 1    
    76   38   39 2    
    77   38   40 1    
    78   40   41 1    
    79   40   42 1    
    80   40  102 1    
    81   41  103 1    
    82   41  104 1    
    83   41  105 1    
    84   42   43 am   BACKBONE|DICT|INTERRES
    85   42  106 1    
    86   43   44 2    
    87   43   45 1    
    88   45   46 1    
    89   45   49 1    
    90   45  107 1    
    91   46   47 1    
    92   46  108 1    
    93   46  109 1    
    94   47   48 1    
    95   48  110 1    
    96   48  111 1    
    97   49   50 am   BACKBONE|DICT|INTERRES
    98   49  112 1    
    99   50   51 2    
   100   50   52 1    
   101   52   53 1    
   102   52   54 1    
   103   52  113 1    
   104   53  114 1    
   105   53  115 1    
   106   53  116 1    
   107   54   55 am   BACKBONE|DICT|INTERRES
   108   54  117 1    
   109   55   56 2    
   110   55   57 1    
   111   57   58 1    
   112   57   59 1    
   113   57  118 1    
   114   58  119 1    
   115   58  120 1    
   116   58  121 1    
   117   59   60 am   BACKBONE|DICT|INTERRES
   118   59  122 1    
   119   60   61 2    
   120   60   62 1    
   121   62   63 1    
   122   62   64 1    
   123   62  123 1    
   124   63  124 1    
   125   63  125 1    
   126   63  126 1    
   127   64   65 am   BACKBONE|DICT|INTERRES
   128   64  127 1    
   129   65   66 2    
@<TRIPOS>SUBSTRUCTURE
     1 UNK         1 GROUP             0       ****    0 ROOT    
