@<TRIPOS>MOLECULE
3R135
127   129    1
SMALL
USER_CHARGES


@<TRIPOS>ATOM
      1 CA        -80.7395   24.8071  -72.7124 C.3       0 UNK        -0.1998 
      2 C         -82.2159   25.0855  -72.4364 C.2       0 UNK         0.4909 
      3 O         -82.8260   24.3497  -71.6637 O.2       0 UNK        -0.5240 
      4 N         -82.8469   26.1174  -73.0221 N.am      1 UNK        -0.4739 
      5 CA        -82.3240   27.1000  -73.9882 C.3       1 UNK         0.0864 
      6 C6        -81.1213   27.9119  -73.4340 C.3       11 UNK        -0.0881 
      7 S7        -81.0523   29.6365  -74.0325 S.3       11 UNK        -0.2682 
      8 C8        -80.3641   30.5100  -72.5864 C.3       11 UNK         0.0289 
      9 C9        -78.9570   30.0352  -72.2464 C.ar      11 UNK        -0.0687 
     10 C10       -78.7727   29.0048  -71.3197 C.ar      11 UNK        -0.0823 
     11 C11       -77.4919   28.5345  -71.0271 C.ar      11 UNK        -0.0830 
     12 C12       -76.3890   29.1263  -71.6415 C.ar      11 UNK        -0.1021 
     13 C13       -76.5490   30.1667  -72.5600 C.ar      11 UNK        -0.0753 
     14 C14       -77.8408   30.6166  -72.8595 C.ar      11 UNK        -0.0933 
     15 C15       -75.3388   30.7609  -73.2737 C.3       11 UNK         0.0166 
     16 S16       -74.1711   31.5969  -72.1517 S.3       11 UNK        -0.2615 
     17 C17       -72.9599   30.2809  -71.7555 C.3       11 UNK        -0.0865 
     18 CA        -71.7270   30.2937  -72.6967 C.3       10 UNK         0.0862 
     19 C         -70.5395   29.4654  -72.1188 C.2       10 UNK         0.5551 
     20 N         -69.8968   28.5830  -72.8757 N.am      10 UNK        -0.7319 
     21 O         -70.1801   29.6374  -70.9566 O.2       10 UNK        -0.5018 
     22 N         -72.1059   29.8940  -74.0604 N.am      10 UNK        -0.4509 
     23 C         -71.5893   30.4113  -75.1799 C.2       10 UNK         0.4899 
     24 O         -70.7761   31.3370  -75.1980 O.2       10 UNK        -0.4839 
     25 CA        -72.0602   29.7696  -76.4993 C.3       9 UNK         0.0222 
     26 CB        -71.1928   30.1787  -77.7083 C.3       9 UNK        -0.1966 
     27 N         -72.1801   28.3073  -76.4287 N.am      9 UNK        -0.4218 
     28 C         -71.2189   27.4213  -76.1154 C.2       9 UNK         0.5020 
     29 O         -70.0844   27.7476  -75.7640 O.2       9 UNK        -0.5274 
     30 CA        -71.5649   25.9174  -76.1735 C.3       8 UNK         0.0270 
     31 CB        -71.4430   25.2830  -74.7777 C.3       8 UNK        -0.1976 
     32 N         -72.8971   25.6317  -76.7125 N.am      8 UNK        -0.4313 
     33 C         -73.2616   25.7743  -77.9943 C.2       8 UNK         0.5041 
     34 O         -72.4799   26.0527  -78.9036 O.2       8 UNK        -0.5577 
     35 CA        -74.7644   25.6536  -78.2972 C.3       7 UNK         0.0284 
     36 CB        -75.1385   24.2090  -78.6652 C.3       7 UNK        -0.1958 
     37 N         -75.5936   26.1356  -77.1838 N.am      7 UNK        -0.4454 
     38 C         -75.6951   27.4268  -76.8313 C.2       7 UNK         0.5089 
     39 O         -75.1497   28.3426  -77.4457 O.2       7 UNK        -0.5125 
     40 CA        -76.4792   27.7525  -75.5516 C.3       6 UNK         0.0408 
     41 CB        -77.9663   27.9735  -75.8550 C.3       6 UNK        -0.1791 
     42 N         -76.3104   26.7273  -74.5183 N.am      6 UNK        -0.4762 
     43 C         -75.2044   26.6051  -73.7650 C.2       6 UNK         0.5007 
     44 O         -74.2542   27.3895  -73.8243 O.2       6 UNK        -0.5032 
     45 CA        -75.0951   25.3735  -72.8360 C.3       5 UNK         0.0783 
     46 C46       -75.4044   25.6953  -71.3515 C.3       11 UNK        -0.0857 
     47 S47       -77.1871   25.7900  -70.9444 S.3       11 UNK        -0.2512 
     48 C48       -77.3026   27.3776  -70.0601 C.3       11 UNK         0.0225 
     49 N         -75.8503   24.2106  -73.3080 N.am      5 UNK        -0.4615 
     50 C         -75.6278   23.5549  -74.4512 C.2       4 UNK         0.5053 
     51 O         -74.7326   23.8590  -75.2404 O.2       4 UNK        -0.5105 
     52 CA        -76.5851   22.4000  -74.8044 C.3       4 UNK         0.0263 
     53 CB        -77.5231   21.9792  -73.6486 C.3       4 UNK        -0.1981 
     54 N         -77.3665   22.7004  -76.0103 N.am      4 UNK        -0.4224 
     55 C         -78.1679   23.7587  -76.2072 C.2       3 UNK         0.4895 
     56 O         -78.3378   24.6486  -75.3716 O.2       3 UNK        -0.5091 
     57 CA        -78.8487   23.8867  -77.5858 C.3       3 UNK         0.0250 
     58 CB        -78.8013   22.6007  -78.4448 C.3       3 UNK        -0.1996 
     59 N         -80.2208   24.3947  -77.4838 N.am      3 UNK        -0.4254 
     60 C         -81.2564   23.8099  -76.8662 C.2       2 UNK         0.5004 
     61 O         -81.1983   22.7288  -76.2764 O.2       2 UNK        -0.5226 
     62 CA        -82.5869   24.5815  -76.9022 C.3       2 UNK         0.0269 
     63 CB        -83.7928   23.6377  -77.0599 C.3       2 UNK        -0.1926 
     64 N         -82.7523   25.3656  -75.6802 N.am      2 UNK        -0.4687 
     65 C         -82.0860   26.4932  -75.3929 C.2       1 UNK         0.5165 
     66 O         -81.3210   27.0387  -76.1887 O.2       1 UNK        -0.5079 
     67 H67       -80.4918   24.8869  -73.7688 H         1 UNK         0.0900 
     68 H68       -80.1088   25.4944  -72.1499 H         1 UNK         0.0900 
     69 H69       -80.4822   23.7951  -72.4009 H         1 UNK         0.0900 
     70 H70       -83.8224   26.2509  -72.7914 H         1 UNK         0.2959 
     71 H71       -83.1491   27.8002  -74.1296 H         1 UNK         0.1079 
     72 H72       -81.2044   27.9540  -72.3485 H         1 UNK         0.0837 
     73 H73       -80.1707   27.4199  -73.6433 H         1 UNK         0.0837 
     74 H74       -80.3505   31.5805  -72.7963 H         1 UNK         0.0685 
     75 H75       -81.0288   30.3777  -71.7312 H         1 UNK         0.0685 
     76 H76       -79.6272   28.5533  -70.8361 H         1 UNK         0.1434 
     77 H77       -75.4059   28.7547  -71.4137 H         1 UNK         0.1329 
     78 H78       -77.9827   31.4078  -73.5827 H         1 UNK         0.1335 
     79 H79       -75.6626   31.4855  -74.0222 H         1 UNK         0.0680 
     80 H80       -74.8186   29.9790  -73.8225 H         1 UNK         0.0680 
     81 H81       -73.4204   29.2958  -71.7782 H         1 UNK         0.1032 
     82 H82       -72.6573   30.4438  -70.7194 H         1 UNK         0.1032 
     83 H83       -71.3599   31.3213  -72.7236 H         1 UNK         0.0461 
     84 H84       -69.1285   28.0678  -72.4770 H         1 UNK         0.3453 
     85 H85       -70.1321   28.4528  -73.8528 H         1 UNK         0.3453 
     86 H86       -72.7411   29.1084  -74.1317 H         1 UNK         0.2984 
     87 H87       -73.0683   30.1477  -76.6748 H         1 UNK         0.0554 
     88 H88       -71.5656   29.7347  -78.6314 H         1 UNK         0.0847 
     89 H89       -70.1543   29.8699  -77.5832 H         1 UNK         0.0847 
     90 H90       -71.1966   31.2606  -77.8464 H         1 UNK         0.0847 
     91 H91       -73.0897   27.9444  -76.6846 H         1 UNK         0.3141 
     92 H92       -70.8306   25.4432  -76.8279 H         1 UNK         0.0743 
     93 H93       -71.7104   24.2261  -74.7922 H         1 UNK         0.0784 
     94 H94       -70.4194   25.3527  -74.4070 H         1 UNK         0.0784 
     95 H95       -72.0814   25.7845  -74.0513 H         1 UNK         0.0784 
     96 H96       -73.5952   25.2948  -76.0563 H         1 UNK         0.3213 
     97 H97       -74.9689   26.2823  -79.1670 H         1 UNK         0.0855 
     98 H98       -74.4933   23.8330  -79.4605 H         1 UNK         0.0814 
     99 H99       -76.1604   24.1485  -79.0347 H         1 UNK         0.0814 
    100 H100      -75.0374   23.5281  -77.8206 H         1 UNK         0.0814 
    101 H101      -76.0067   25.4409  -76.5781 H         1 UNK         0.3105 
    102 H102      -76.0920   28.6958  -75.1683 H         1 UNK         0.0547 
    103 H103      -78.4967   28.2997  -74.9625 H         1 UNK         0.0837 
    104 H104      -78.4540   27.0749  -76.2307 H         1 UNK         0.0837 
    105 H105      -78.1000   28.7523  -76.6067 H         1 UNK         0.0837 
    106 H106      -77.0427   26.0283  -74.4419 H         1 UNK         0.3020 
    107 H107      -74.0432   25.0836  -72.8762 H         1 UNK         0.1245 
    108 H108      -74.8845   26.6000  -71.0358 H         1 UNK         0.0781 
    109 H109      -74.9861   24.9034  -70.7283 H         1 UNK         0.0781 
    110 H110      -76.4177   27.5336  -69.4412 H         1 UNK         0.0836 
    111 H111      -78.1456   27.3292  -69.3691 H         1 UNK         0.0836 
    112 H112      -76.6338   23.9356  -72.7332 H         1 UNK         0.3022 
    113 H113      -75.9513   21.5454  -75.0456 H         1 UNK         0.0747 
    114 H114      -78.1183   21.1104  -73.9298 H         1 UNK         0.0793 
    115 H115      -76.9564   21.7004  -72.7591 H         1 UNK         0.0793 
    116 H116      -78.2191   22.7709  -73.3685 H         1 UNK         0.0793 
    117 H117      -77.2679   22.0384  -76.7669 H         1 UNK         0.3047 
    118 H118      -78.2928   24.6595  -78.1176 H         1 UNK         0.0822 
    119 H119      -79.2811   21.7575  -77.9461 H         1 UNK         0.0807 
    120 H120      -77.7776   22.3087  -78.6804 H         1 UNK         0.0807 
    121 H121      -79.3099   22.7495  -79.3976 H         1 UNK         0.0807 
    122 H122      -80.3631   25.3287  -77.8449 H         1 UNK         0.2946 
    123 H123      -82.5782   25.2577  -77.7606 H         1 UNK         0.1144 
    124 H124      -83.6917   23.0246  -77.9565 H         1 UNK         0.0793 
    125 H125      -83.8940   22.9595  -76.2115 H         1 UNK         0.0793 
    126 H126      -84.7239   24.1969  -77.1540 H         1 UNK         0.0793 
    127 H127      -83.3438   24.9685  -74.9642 H         1 UNK         0.2896 
@<TRIPOS>BOND
     1    1    2 1    
     2    1   67 1    
     3    1   68 1    
     4    1   69 1    
     5    2    3 2    
     6    2    4 am   BACKBONE|DICT|INTERRES
     7    4    5 1    
     8    4   70 1    
     9    5    6 1    
    10    5   65 1    
    11    5   71 1    
    12    6    7 1    
    13    6   72 1    
    14    6   73 1    
    15    7    8 1    
    16    8    9 1    
    17    8   74 1    
    18    8   75 1    
    19    9   10 ar   
    20    9   14 ar   
    21   10   11 ar   
    22   10   76 1    
    23   11   12 ar   
    24   11   48 1    
    25   12   13 ar   
    26   12   77 1    
    27   13   14 ar   
    28   13   15 1    
    29   14   78 1    
    30   15   16 1    
    31   15   79 1    
    32   15   80 1    
    33   16   17 1    
    34   17   18 1    
    35   17   81 1    
    36   17   82 1    
    37   18   19 1    
    38   18   22 1    
    39   18   83 1    
    40   19   20 am   BACKBONE|DICT|INTERRES
    41   19   21 2    
    42   20   84 1    
    43   20   85 1    
    44   22   23 am   BACKBONE|DICT|INTERRES
    45   22   86 1    
    46   23   24 2    
    47   23   25 1    
    48   25   26 1    
    49   25   27 1    
    50   25   87 1    
    51   26   88 1    
    52   26   89 1    
    53   26   90 1    
    54   27   28 am   BACKBONE|DICT|INTERRES
    55   27   91 1    
    56   28   29 2    
    57   28   30 1    
    58   30   31 1    
    59   30   32 1    
    60   30   92 1    
    61   31   93 1    
    62   31   94 1    
    63   31   95 1    
    64   32   33 am   BACKBONE|DICT|INTERRES
    65   32   96 1    
    66   33   34 2    
    67   33   35 1    
    68   35   36 1    
    69   35   37 1    
    70   35   97 1    
    71   36   98 1    
    72   36   99 1    
    73   36  100 1    
    74   37   38 am   BACKBONE|DICT|INTERRES
    75   37  101 1    
    76   38   39 2    
    77   38   40 1    
    78   40   41 1    
    79   40   42 1    
    80   40  102 1    
    81   41  103 1    
    82   41  104 1    
    83   41  105 1    
    84   42   43 am   BACKBONE|DICT|INTERRES
    85   42  106 1    
    86   43   44 2    
    87   43   45 1    
    88   45   46 1    
    89   45   49 1    
    90   45  107 1    
    91   46   47 1    
    92   46  108 1    
    93   46  109 1    
    94   47   48 1    
    95   48  110 1    
    96   48  111 1    
    97   49   50 am   BACKBONE|DICT|INTERRES
    98   49  112 1    
    99   50   51 2    
   100   50   52 1    
   101   52   53 1    
   102   52   54 1    
   103   52  113 1    
   104   53  114 1    
   105   53  115 1    
   106   53  116 1    
   107   54   55 am   BACKBONE|DICT|INTERRES
   108   54  117 1    
   109   55   56 2    
   110   55   57 1    
   111   57   58 1    
   112   57   59 1    
   113   57  118 1    
   114   58  119 1    
   115   58  120 1    
   116   58  121 1    
   117   59   60 am   BACKBONE|DICT|INTERRES
   118   59  122 1    
   119   60   61 2    
   120   60   62 1    
   121   62   63 1    
   122   62   64 1    
   123   62  123 1    
   124   63  124 1    
   125   63  125 1    
   126   63  126 1    
   127   64   65 am   BACKBONE|DICT|INTERRES
   128   64  127 1    
   129   65   66 2    
@<TRIPOS>SUBSTRUCTURE
     1 UNK         1 GROUP             0       ****    0 ROOT    
