@<TRIPOS>MOLECULE
3R135
127   129    1
SMALL
USER_CHARGES


@<TRIPOS>ATOM
      1 CA        -80.5024   28.8599  -70.6844 C.3       0 UNK        -0.1998 
      2 C         -81.3592   28.6382  -71.9216 C.2       0 UNK         0.4909 
      3 O         -82.5338   28.2900  -71.8025 O.2       0 UNK        -0.5240 
      4 N         -80.7767   28.8349  -73.1110 N.am      1 UNK        -0.4739 
      5 CA        -81.4290   28.6667  -74.4156 C.3       1 UNK         0.0864 
      6 C6        -80.7619   29.5424  -75.5072 C.3       11 UNK        -0.0881 
      7 S7        -79.0459   29.0885  -75.9472 S.3       11 UNK        -0.2682 
      8 C8        -78.0565   30.1630  -74.8459 C.3       11 UNK         0.0289 
      9 C9        -77.5868   29.5180  -73.5381 C.ar      11 UNK        -0.0687 
     10 C10       -77.7253   28.1487  -73.2662 C.ar      11 UNK        -0.0823 
     11 C11       -77.2867   27.6082  -72.0535 C.ar      11 UNK        -0.0830 
     12 C12       -76.6805   28.4419  -71.1125 C.ar      11 UNK        -0.1021 
     13 C13       -76.5151   29.8047  -71.3736 C.ar      11 UNK        -0.0753 
     14 C14       -76.9786   30.3358  -72.5804 C.ar      11 UNK        -0.0933 
     15 C15       -75.8468   30.6960  -70.3382 C.3       11 UNK         0.0166 
     16 S16       -74.0575   30.3775  -70.2481 S.3       11 UNK        -0.2615 
     17 C17       -73.3689   31.5777  -71.4442 C.3       11 UNK        -0.0865 
     18 CA        -73.3775   31.1296  -72.9397 C.3       10 UNK         0.0862 
     19 C         -72.6729   32.1577  -73.8758 C.2       10 UNK         0.5551 
     20 N         -72.3187   31.7930  -75.1010 N.am      10 UNK        -0.7319 
     21 O         -72.4549   33.3078  -73.5006 O.2       10 UNK        -0.5018 
     22 N         -72.9483   29.7368  -73.1492 N.am      10 UNK        -0.4509 
     23 C         -71.7574   29.2186  -72.8196 C.2       10 UNK         0.4899 
     24 O         -70.8243   29.8606  -72.3364 O.2       10 UNK        -0.4839 
     25 CA        -71.5928   27.7098  -73.0627 C.3       9 UNK         0.0222 
     26 CB        -72.4683   26.8991  -72.0900 C.3       9 UNK        -0.1966 
     27 N         -71.9164   27.3472  -74.4429 N.am      9 UNK        -0.4218 
     28 C         -71.1343   27.6103  -75.4994 C.2       9 UNK         0.5020 
     29 O         -70.0116   28.1104  -75.4181 O.2       9 UNK        -0.5274 
     30 CA        -71.7001   27.2601  -76.8868 C.3       8 UNK         0.0270 
     31 CB        -71.2632   25.8481  -77.3088 C.3       8 UNK        -0.1976 
     32 N         -73.1615   27.3753  -76.9712 N.am      8 UNK        -0.4313 
     33 C         -73.8241   28.5411  -76.9082 C.2       8 UNK         0.5041 
     34 O         -73.2597   29.6150  -76.6986 O.2       8 UNK        -0.5577 
     35 CA        -75.3595   28.5433  -77.0542 C.3       7 UNK         0.0284 
     36 CB        -75.8305   29.5764  -78.0984 C.3       7 UNK        -0.1958 
     37 N         -75.9771   27.2338  -77.2893 N.am      7 UNK        -0.4454 
     38 C         -75.8561   26.4216  -78.3501 C.2       7 UNK         0.5089 
     39 O         -75.2207   26.6993  -79.3675 O.2       7 UNK        -0.5125 
     40 CA        -76.5185   25.0350  -78.1954 C.3       6 UNK         0.0408 
     41 CB        -75.9611   23.9913  -79.1850 C.3       6 UNK        -0.1791 
     42 N         -76.4476   24.5356  -76.8129 N.am      6 UNK        -0.4762 
     43 C         -75.3317   24.3446  -76.0852 C.2       6 UNK         0.5007 
     44 O         -74.1914   24.5033  -76.5189 O.2       6 UNK        -0.5032 
     45 CA        -75.5302   24.0205  -74.5968 C.3       5 UNK         0.0783 
     46 C46       -75.7920   25.3450  -73.8442 C.3       11 UNK        -0.0857 
     47 S47       -75.9822   25.1488  -72.0453 S.3       11 UNK        -0.2512 
     48 C48       -77.4879   26.1289  -71.7478 C.3       11 UNK         0.0225 
     49 N         -76.6125   23.0473  -74.4399 N.am      5 UNK        -0.4615 
     50 C         -76.4328   21.7193  -74.4700 C.2       4 UNK         0.5053 
     51 O         -75.3284   21.1755  -74.4898 O.2       4 UNK        -0.5105 
     52 CA        -77.7000   20.8453  -74.5158 C.3       4 UNK         0.0263 
     53 CB        -78.2006   20.5477  -73.0931 C.3       4 UNK        -0.1981 
     54 N         -78.7789   21.4606  -75.2919 N.am      4 UNK        -0.4224 
     55 C         -78.7263   21.7314  -76.6052 C.2       3 UNK         0.4895 
     56 O         -77.8246   21.3419  -77.3464 O.2       3 UNK        -0.5091 
     57 CA        -79.8489   22.6102  -77.1914 C.3       3 UNK         0.0250 
     58 CB        -80.7954   21.7663  -78.0605 C.3       3 UNK        -0.1996 
     59 N         -80.6369   23.3319  -76.1840 N.am      3 UNK        -0.4254 
     60 C         -80.1750   24.2972  -75.3768 C.2       2 UNK         0.5004 
     61 O         -79.0070   24.7003  -75.3796 O.2       2 UNK        -0.5226 
     62 CA        -81.1624   24.8076  -74.3185 C.3       2 UNK         0.0269 
     63 CB        -80.9513   24.0581  -72.9921 C.3       2 UNK        -0.1926 
     64 N         -81.0220   26.2448  -74.0894 N.am      2 UNK        -0.4687 
     65 C         -81.5972   27.1899  -74.8474 C.2       1 UNK         0.5165 
     66 O         -82.2738   26.9316  -75.8447 O.2       1 UNK        -0.5079 
     67 H67       -80.2477   27.9046  -70.2266 H         1 UNK         0.0900 
     68 H68       -81.0450   29.4566  -69.9518 H         1 UNK         0.0900 
     69 H69       -79.5760   29.3828  -70.9215 H         1 UNK         0.0900 
     70 H70       -79.8037   29.1094  -73.1479 H         1 UNK         0.2959 
     71 H71       -82.4498   29.0412  -74.3074 H         1 UNK         0.1079 
     72 H72       -81.3539   29.4975  -76.4233 H         1 UNK         0.0837 
     73 H73       -80.7942   30.5906  -75.2073 H         1 UNK         0.0837 
     74 H74       -77.1786   30.4983  -75.3976 H         1 UNK         0.0685 
     75 H75       -78.6212   31.0683  -74.6196 H         1 UNK         0.0685 
     76 H76       -78.1885   27.4913  -73.9875 H         1 UNK         0.1434 
     77 H77       -76.3297   28.0292  -70.1763 H         1 UNK         0.1329 
     78 H78       -76.8595   31.3925  -72.7783 H         1 UNK         0.1335 
     79 H79       -76.0346   31.7511  -70.5421 H         1 UNK         0.0680 
     80 H80       -76.2863   30.4930  -69.3605 H         1 UNK         0.0680 
     81 H81       -72.3439   31.7829  -71.1304 H         1 UNK         0.1032 
     82 H82       -73.8990   32.5251  -71.3332 H         1 UNK         0.1032 
     83 H83       -74.4171   31.1499  -73.2622 H         1 UNK         0.0461 
     84 H84       -71.8653   32.4661  -75.6969 H         1 UNK         0.3453 
     85 H85       -72.5688   30.8829  -75.4801 H         1 UNK         0.3453 
     86 H86       -73.6437   29.1281  -73.5506 H         1 UNK         0.2984 
     87 H87       -70.5498   27.4470  -72.8729 H         1 UNK         0.0554 
     88 H88       -72.3312   25.8265  -72.2274 H         1 UNK         0.0847 
     89 H89       -73.5300   27.1192  -72.2078 H         1 UNK         0.0847 
     90 H90       -72.2088   27.1278  -71.0554 H         1 UNK         0.0847 
     91 H91       -72.8109   26.9154  -74.6144 H         1 UNK         0.3141 
     92 H92       -71.2741   27.9693  -77.6001 H         1 UNK         0.0743 
     93 H93       -71.6093   25.0895  -76.6062 H         1 UNK         0.0784 
     94 H94       -71.6452   25.5907  -78.2969 H         1 UNK         0.0784 
     95 H95       -70.1756   25.7756  -77.3523 H         1 UNK         0.0784 
     96 H96       -73.6776   26.5164  -77.1246 H         1 UNK         0.3213 
     97 H97       -75.7316   28.8625  -76.0814 H         1 UNK         0.0855 
     98 H98       -75.4993   30.5809  -77.8321 H         1 UNK         0.0814 
     99 H99       -76.9177   29.6044  -78.1683 H         1 UNK         0.0814 
    100 H100      -75.4354   29.3590  -79.0909 H         1 UNK         0.0814 
    101 H101      -76.5464   26.8890  -76.5297 H         1 UNK         0.3105 
    102 H102      -77.5771   25.1743  -78.4187 H         1 UNK         0.0547 
    103 H103      -76.1244   24.3044  -80.2168 H         1 UNK         0.0837 
    104 H104      -74.8885   23.8427  -79.0570 H         1 UNK         0.0837 
    105 H105      -76.4500   23.0256  -79.0597 H         1 UNK         0.0837 
    106 H106      -77.3433   24.4475  -76.3391 H         1 UNK         0.3020 
    107 H107      -74.5960   23.5948  -74.2221 H         1 UNK         0.1245 
    108 H108      -76.6869   25.8165  -74.2479 H         1 UNK         0.0781 
    109 H109      -74.9769   26.0520  -74.0073 H         1 UNK         0.0781 
    110 H110      -77.7891   26.0077  -70.7062 H         1 UNK         0.0836 
    111 H111      -78.3021   25.7250  -72.3485 H         1 UNK         0.0836 
    112 H112      -77.5531   23.4201  -74.4441 H         1 UNK         0.3022 
    113 H113      -77.4368   19.9002  -74.9957 H         1 UNK         0.0747 
    114 H114      -79.0575   19.8738  -73.1060 H         1 UNK         0.0793 
    115 H115      -77.4216   20.0668  -72.4997 H         1 UNK         0.0793 
    116 H116      -78.4948   21.4573  -72.5676 H         1 UNK         0.0793 
    117 H117      -79.5804   21.7876  -74.7744 H         1 UNK         0.3047 
    118 H118      -79.3690   23.3537  -77.8314 H         1 UNK         0.0822 
    119 H119      -81.5425   22.3882  -78.5543 H         1 UNK         0.0807 
    120 H120      -81.3195   21.0117  -77.4727 H         1 UNK         0.0807 
    121 H121      -80.2449   21.2437  -78.8443 H         1 UNK         0.0807 
    122 H122      -81.6037   23.0515  -76.0971 H         1 UNK         0.2946 
    123 H123      -82.1821   24.6118  -74.6598 H         1 UNK         0.1144 
    124 H124      -81.1701   22.9956  -73.1056 H         1 UNK         0.0793 
    125 H125      -81.6114   24.4379  -72.2118 H         1 UNK         0.0793 
    126 H126      -79.9260   24.1378  -72.6322 H         1 UNK         0.0793 
    127 H127      -80.4714   26.5367  -73.2972 H         1 UNK         0.2896 
@<TRIPOS>BOND
     1    1    2 1    
     2    1   67 1    
     3    1   68 1    
     4    1   69 1    
     5    2    3 2    
     6    2    4 am   BACKBONE|DICT|INTERRES
     7    4    5 1    
     8    4   70 1    
     9    5    6 1    
    10    5   65 1    
    11    5   71 1    
    12    6    7 1    
    13    6   72 1    
    14    6   73 1    
    15    7    8 1    
    16    8    9 1    
    17    8   74 1    
    18    8   75 1    
    19    9   10 ar   
    20    9   14 ar   
    21   10   11 ar   
    22   10   76 1    
    23   11   12 ar   
    24   11   48 1    
    25   12   13 ar   
    26   12   77 1    
    27   13   14 ar   
    28   13   15 1    
    29   14   78 1    
    30   15   16 1    
    31   15   79 1    
    32   15   80 1    
    33   16   17 1    
    34   17   18 1    
    35   17   81 1    
    36   17   82 1    
    37   18   19 1    
    38   18   22 1    
    39   18   83 1    
    40   19   20 am   BACKBONE|DICT|INTERRES
    41   19   21 2    
    42   20   84 1    
    43   20   85 1    
    44   22   23 am   BACKBONE|DICT|INTERRES
    45   22   86 1    
    46   23   24 2    
    47   23   25 1    
    48   25   26 1    
    49   25   27 1    
    50   25   87 1    
    51   26   88 1    
    52   26   89 1    
    53   26   90 1    
    54   27   28 am   BACKBONE|DICT|INTERRES
    55   27   91 1    
    56   28   29 2    
    57   28   30 1    
    58   30   31 1    
    59   30   32 1    
    60   30   92 1    
    61   31   93 1    
    62   31   94 1    
    63   31   95 1    
    64   32   33 am   BACKBONE|DICT|INTERRES
    65   32   96 1    
    66   33   34 2    
    67   33   35 1    
    68   35   36 1    
    69   35   37 1    
    70   35   97 1    
    71   36   98 1    
    72   36   99 1    
    73   36  100 1    
    74   37   38 am   BACKBONE|DICT|INTERRES
    75   37  101 1    
    76   38   39 2    
    77   38   40 1    
    78   40   41 1    
    79   40   42 1    
    80   40  102 1    
    81   41  103 1    
    82   41  104 1    
    83   41  105 1    
    84   42   43 am   BACKBONE|DICT|INTERRES
    85   42  106 1    
    86   43   44 2    
    87   43   45 1    
    88   45   46 1    
    89   45   49 1    
    90   45  107 1    
    91   46   47 1    
    92   46  108 1    
    93   46  109 1    
    94   47   48 1    
    95   48  110 1    
    96   48  111 1    
    97   49   50 am   BACKBONE|DICT|INTERRES
    98   49  112 1    
    99   50   51 2    
   100   50   52 1    
   101   52   53 1    
   102   52   54 1    
   103   52  113 1    
   104   53  114 1    
   105   53  115 1    
   106   53  116 1    
   107   54   55 am   BACKBONE|DICT|INTERRES
   108   54  117 1    
   109   55   56 2    
   110   55   57 1    
   111   57   58 1    
   112   57   59 1    
   113   57  118 1    
   114   58  119 1    
   115   58  120 1    
   116   58  121 1    
   117   59   60 am   BACKBONE|DICT|INTERRES
   118   59  122 1    
   119   60   61 2    
   120   60   62 1    
   121   62   63 1    
   122   62   64 1    
   123   62  123 1    
   124   63  124 1    
   125   63  125 1    
   126   63  126 1    
   127   64   65 am   BACKBONE|DICT|INTERRES
   128   64  127 1    
   129   65   66 2    
@<TRIPOS>SUBSTRUCTURE
     1 UNK         1 GROUP             0       ****    0 ROOT    
