@<TRIPOS>MOLECULE
3R135
127   129    1
SMALL
USER_CHARGES


@<TRIPOS>ATOM
      1 CA        -85.1186   30.4738  -74.6172 C.3       0 UNK        -0.1998 
      2 C         -83.8050   30.0343  -75.2458 C.2       0 UNK         0.4909 
      3 O         -83.6077   30.2195  -76.4470 O.2       0 UNK        -0.5240 
      4 N         -82.9046   29.4516  -74.4437 N.am      1 UNK        -0.4739 
      5 CA        -81.5963   28.9428  -74.8783 C.3       1 UNK         0.0864 
      6 C6        -80.6028   28.8338  -73.6941 C.3       11 UNK        -0.0881 
      7 S7        -81.1905   27.8001  -72.3028 S.3       11 UNK        -0.2682 
      8 C8        -80.3571   28.5878  -70.8858 C.3       11 UNK         0.0289 
      9 C9        -78.8488   28.3939  -70.9458 C.ar      11 UNK        -0.0687 
     10 C10       -78.2689   27.2237  -70.4434 C.ar      11 UNK        -0.0823 
     11 C11       -76.8885   27.0244  -70.5357 C.ar      11 UNK        -0.0830 
     12 C12       -76.0909   28.0105  -71.1242 C.ar      11 UNK        -0.1021 
     13 C13       -76.6586   29.1699  -71.6549 C.ar      11 UNK        -0.0753 
     14 C14       -78.0370   29.3681  -71.5377 C.ar      11 UNK        -0.0933 
     15 C15       -75.8072   30.1491  -72.4530 C.3       11 UNK         0.0166 
     16 S16       -74.8210   31.2811  -71.4207 S.3       11 UNK        -0.2615 
     17 C17       -73.2637   30.3624  -71.1452 C.3       11 UNK        -0.0865 
     18 CA        -72.1972   30.6049  -72.2488 C.3       10 UNK         0.0862 
     19 C         -70.8162   30.0696  -71.7945 C.2       10 UNK         0.5551 
     20 N         -69.9481   30.9355  -71.2911 N.am      10 UNK        -0.7319 
     21 O         -70.5428   28.8722  -71.8583 O.2       10 UNK        -0.5018 
     22 N         -72.5706   29.9516  -73.5092 N.am      10 UNK        -0.4509 
     23 C         -72.7060   30.5514  -74.6964 C.2       10 UNK         0.4899 
     24 O         -72.5721   31.7628  -74.8776 O.2       10 UNK        -0.4839 
     25 CA        -73.0700   29.6261  -75.8754 C.3       9 UNK         0.0222 
     26 CB        -72.9668   30.3209  -77.2497 C.3       9 UNK        -0.1966 
     27 N         -72.3223   28.3621  -75.8682 N.am      9 UNK        -0.4218 
     28 C         -70.9940   28.1941  -75.9788 C.2       9 UNK         0.5020 
     29 O         -70.1850   29.1146  -76.0993 O.2       9 UNK        -0.5274 
     30 CA        -70.4799   26.7454  -75.9627 C.3       8 UNK         0.0270 
     31 CB        -70.3179   26.2495  -74.5158 C.3       8 UNK        -0.1976 
     32 N         -71.3867   25.8512  -76.6869 N.am      8 UNK        -0.4313 
     33 C         -71.2514   25.4937  -77.9719 C.2       8 UNK         0.5041 
     34 O         -70.2868   25.8044  -78.6720 O.2       8 UNK        -0.5577 
     35 CA        -72.3846   24.6498  -78.5909 C.3       7 UNK         0.0284 
     36 CB        -72.0952   23.1500  -78.4191 C.3       7 UNK        -0.1958 
     37 N         -73.7027   24.9529  -78.0276 N.am      7 UNK        -0.4454 
     38 C         -74.3476   26.1190  -78.1818 C.2       7 UNK         0.5089 
     39 O         -73.9634   27.0157  -78.9321 O.2       7 UNK        -0.5125 
     40 CA        -75.6135   26.3485  -77.3313 C.3       6 UNK         0.0408 
     41 CB        -76.8768   26.1669  -78.1868 C.3       6 UNK        -0.1791 
     42 N         -75.7214   25.5005  -76.1379 N.am      6 UNK        -0.4762 
     43 C         -74.8264   25.4196  -75.1392 C.2       6 UNK         0.5007 
     44 O         -73.7792   26.0669  -75.1172 O.2       6 UNK        -0.5032 
     45 CA        -75.1414   24.4679  -73.9651 C.3       5 UNK         0.0783 
     46 C46       -75.6500   25.3285  -72.7883 C.3       11 UNK        -0.0857 
     47 S47       -76.2871   24.4196  -71.3400 S.3       11 UNK        -0.2512 
     48 C48       -76.2527   25.7232  -70.0576 C.3       11 UNK         0.0225 
     49 N         -76.0804   23.4002  -74.3142 N.am      5 UNK        -0.4615 
     50 C         -75.9319   22.4841  -75.2809 C.2       4 UNK         0.5053 
     51 O         -74.9210   22.3832  -75.9774 O.2       4 UNK        -0.5105 
     52 CA        -77.1321   21.5527  -75.5435 C.3       4 UNK         0.0263 
     53 CB        -76.8436   20.1428  -75.0033 C.3       4 UNK        -0.1981 
     54 N         -78.4017   22.0349  -74.9790 N.am      4 UNK        -0.4224 
     55 C         -79.0226   23.1715  -75.3268 C.2       3 UNK         0.4895 
     56 O         -78.6016   23.9519  -76.1853 O.2       3 UNK        -0.5091 
     57 CA        -80.2796   23.5219  -74.5253 C.3       3 UNK         0.0250 
     58 CB        -79.9021   24.1638  -73.1765 C.3       3 UNK        -0.1996 
     59 N         -81.0910   24.4624  -75.2900 N.am      3 UNK        -0.4254 
     60 C         -82.4263   24.4894  -75.3269 C.2       2 UNK         0.5004 
     61 O         -83.1451   23.7095  -74.6983 O.2       2 UNK        -0.5226 
     62 CA        -83.0573   25.6041  -76.1814 C.3       2 UNK         0.0269 
     63 CB        -84.5741   25.4189  -76.3763 C.3       2 UNK        -0.1926 
     64 N         -82.8179   26.9119  -75.5705 N.am      2 UNK        -0.4687 
     65 C         -81.6839   27.6197  -75.6713 C.2       1 UNK         0.5165 
     66 O         -80.7225   27.2583  -76.3525 O.2       1 UNK        -0.5079 
     67 H67       -85.2546   31.5474  -74.7448 H         1 UNK         0.0900 
     68 H68       -85.1547   30.2521  -73.5507 H         1 UNK         0.0900 
     69 H69       -85.9535   29.9648  -75.0981 H         1 UNK         0.0900 
     70 H70       -83.1129   29.3196  -73.4633 H         1 UNK         0.2959 
     71 H71       -81.1790   29.6718  -75.5770 H         1 UNK         0.1079 
     72 H72       -79.6366   28.4507  -74.0297 H         1 UNK         0.0837 
     73 H73       -80.4054   29.8390  -73.3201 H         1 UNK         0.0837 
     74 H74       -80.7468   28.1553  -69.9632 H         1 UNK         0.0685 
     75 H75       -80.6086   29.6491  -70.8540 H         1 UNK         0.0685 
     76 H76       -78.8954   26.4566  -70.0088 H         1 UNK         0.1434 
     77 H77       -75.0307   27.8401  -71.2236 H         1 UNK         0.1329 
     78 H78       -78.4848   30.2622  -71.9485 H         1 UNK         0.1335 
     79 H79       -75.1633   29.5912  -73.1310 H         1 UNK         0.0680 
     80 H80       -76.4480   30.7555  -73.0949 H         1 UNK         0.0680 
     81 H81       -73.4590   29.2990  -71.0221 H         1 UNK         0.1032 
     82 H82       -72.8808   30.6982  -70.1793 H         1 UNK         0.1032 
     83 H83       -72.1051   31.6823  -72.4008 H         1 UNK         0.0461 
     84 H84       -69.0502   30.6017  -70.9767 H         1 UNK         0.3453 
     85 H85       -70.1683   31.9173  -71.2248 H         1 UNK         0.3453 
     86 H86       -72.6148   28.9436  -73.4726 H         1 UNK         0.2984 
     87 H87       -74.1162   29.3531  -75.7294 H         1 UNK         0.0554 
     88 H88       -73.6268   31.1875  -77.3005 H         1 UNK         0.0847 
     89 H89       -73.2557   29.6472  -78.0566 H         1 UNK         0.0847 
     90 H90       -71.9545   30.6718  -77.4522 H         1 UNK         0.0847 
     91 H91       -72.8838   27.5290  -75.7028 H         1 UNK         0.3141 
     92 H92       -69.4946   26.7341  -76.4338 H         1 UNK         0.0743 
     93 H93       -69.6411   26.8970  -73.9561 H         1 UNK         0.0784 
     94 H94       -71.2673   26.2338  -73.9792 H         1 UNK         0.0784 
     95 H95       -69.9008   25.2428  -74.4873 H         1 UNK         0.0784 
     96 H96       -72.2374   25.5900  -76.1994 H         1 UNK         0.3213 
     97 H97       -72.4152   24.8733  -79.6597 H         1 UNK         0.0855 
     98 H98       -72.0814   22.8584  -77.3679 H         1 UNK         0.0814 
     99 H99       -71.1250   22.8884  -78.8439 H         1 UNK         0.0814 
    100 H100      -72.8444   22.5408  -78.9251 H         1 UNK         0.0814 
    101 H101      -74.1076   24.2623  -77.4085 H         1 UNK         0.3105 
    102 H102      -75.5816   27.3843  -76.9876 H         1 UNK         0.0547 
    103 H103      -76.8466   26.8024  -79.0729 H         1 UNK         0.0837 
    104 H104      -76.9883   25.1363  -78.5260 H         1 UNK         0.0837 
    105 H105      -77.7758   26.4331  -77.6296 H         1 UNK         0.0837 
    106 H106      -76.5618   24.9373  -76.0693 H         1 UNK         0.3020 
    107 H107      -74.2035   23.9909  -73.6730 H         1 UNK         0.1245 
    108 H108      -76.4514   25.9930  -73.1211 H         1 UNK         0.0781 
    109 H109      -74.8308   25.9650  -72.4517 H         1 UNK         0.0781 
    110 H110      -76.7698   25.3609  -69.1679 H         1 UNK         0.0836 
    111 H111      -75.2189   25.8988  -69.7559 H         1 UNK         0.0836 
    112 H112      -76.9343   23.3859  -73.7772 H         1 UNK         0.3022 
    113 H113      -77.2552   21.4881  -76.6266 H         1 UNK         0.0747 
    114 H114      -75.9219   19.7426  -75.4285 H         1 UNK         0.0793 
    115 H115      -77.6432   19.4473  -75.2592 H         1 UNK         0.0793 
    116 H116      -76.7291   20.1414  -73.9185 H         1 UNK         0.0793 
    117 H117      -78.8131   21.4623  -74.2552 H         1 UNK         0.3047 
    118 H118      -80.8419   22.6019  -74.3505 H         1 UNK         0.0822 
    119 H119      -80.7905   24.4228  -72.5999 H         1 UNK         0.0807 
    120 H120      -79.3204   25.0774  -73.3119 H         1 UNK         0.0807 
    121 H121      -79.3079   23.4851  -72.5637 H         1 UNK         0.0807 
    122 H122      -80.5677   25.1328  -75.8449 H         1 UNK         0.2946 
    123 H123      -82.5867   25.5720  -77.1671 H         1 UNK         0.1144 
    124 H124      -84.7929   24.4552  -76.8382 H         1 UNK         0.0793 
    125 H125      -84.9863   26.1899  -77.0275 H         1 UNK         0.0793 
    126 H126      -85.1134   25.4571  -75.4289 H         1 UNK         0.0793 
    127 H127      -83.5405   27.2685  -74.9624 H         1 UNK         0.2896 
@<TRIPOS>BOND
     1    1    2 1    
     2    1   67 1    
     3    1   68 1    
     4    1   69 1    
     5    2    3 2    
     6    2    4 am   BACKBONE|DICT|INTERRES
     7    4    5 1    
     8    4   70 1    
     9    5    6 1    
    10    5   65 1    
    11    5   71 1    
    12    6    7 1    
    13    6   72 1    
    14    6   73 1    
    15    7    8 1    
    16    8    9 1    
    17    8   74 1    
    18    8   75 1    
    19    9   10 ar   
    20    9   14 ar   
    21   10   11 ar   
    22   10   76 1    
    23   11   12 ar   
    24   11   48 1    
    25   12   13 ar   
    26   12   77 1    
    27   13   14 ar   
    28   13   15 1    
    29   14   78 1    
    30   15   16 1    
    31   15   79 1    
    32   15   80 1    
    33   16   17 1    
    34   17   18 1    
    35   17   81 1    
    36   17   82 1    
    37   18   19 1    
    38   18   22 1    
    39   18   83 1    
    40   19   20 am   BACKBONE|DICT|INTERRES
    41   19   21 2    
    42   20   84 1    
    43   20   85 1    
    44   22   23 am   BACKBONE|DICT|INTERRES
    45   22   86 1    
    46   23   24 2    
    47   23   25 1    
    48   25   26 1    
    49   25   27 1    
    50   25   87 1    
    51   26   88 1    
    52   26   89 1    
    53   26   90 1    
    54   27   28 am   BACKBONE|DICT|INTERRES
    55   27   91 1    
    56   28   29 2    
    57   28   30 1    
    58   30   31 1    
    59   30   32 1    
    60   30   92 1    
    61   31   93 1    
    62   31   94 1    
    63   31   95 1    
    64   32   33 am   BACKBONE|DICT|INTERRES
    65   32   96 1    
    66   33   34 2    
    67   33   35 1    
    68   35   36 1    
    69   35   37 1    
    70   35   97 1    
    71   36   98 1    
    72   36   99 1    
    73   36  100 1    
    74   37   38 am   BACKBONE|DICT|INTERRES
    75   37  101 1    
    76   38   39 2    
    77   38   40 1    
    78   40   41 1    
    79   40   42 1    
    80   40  102 1    
    81   41  103 1    
    82   41  104 1    
    83   41  105 1    
    84   42   43 am   BACKBONE|DICT|INTERRES
    85   42  106 1    
    86   43   44 2    
    87   43   45 1    
    88   45   46 1    
    89   45   49 1    
    90   45  107 1    
    91   46   47 1    
    92   46  108 1    
    93   46  109 1    
    94   47   48 1    
    95   48  110 1    
    96   48  111 1    
    97   49   50 am   BACKBONE|DICT|INTERRES
    98   49  112 1    
    99   50   51 2    
   100   50   52 1    
   101   52   53 1    
   102   52   54 1    
   103   52  113 1    
   104   53  114 1    
   105   53  115 1    
   106   53  116 1    
   107   54   55 am   BACKBONE|DICT|INTERRES
   108   54  117 1    
   109   55   56 2    
   110   55   57 1    
   111   57   58 1    
   112   57   59 1    
   113   57  118 1    
   114   58  119 1    
   115   58  120 1    
   116   58  121 1    
   117   59   60 am   BACKBONE|DICT|INTERRES
   118   59  122 1    
   119   60   61 2    
   120   60   62 1    
   121   62   63 1    
   122   62   64 1    
   123   62  123 1    
   124   63  124 1    
   125   63  125 1    
   126   63  126 1    
   127   64   65 am   BACKBONE|DICT|INTERRES
   128   64  127 1    
   129   65   66 2    
@<TRIPOS>SUBSTRUCTURE
     1 UNK         1 GROUP             0       ****    0 ROOT    
