@<TRIPOS>MOLECULE
3R135
127   129    1
SMALL
USER_CHARGES


@<TRIPOS>ATOM
      1 CA        -81.0578   22.0881  -70.1581 C.3       0 UNK        -0.1998 
      2 C         -81.0327   23.1130  -71.2814 C.2       0 UNK         0.4909 
      3 O         -80.4245   22.8635  -72.3207 O.2       0 UNK        -0.5240 
      4 N         -81.7131   24.2521  -71.0908 N.am      1 UNK        -0.4739 
      5 CA        -81.7909   25.4335  -71.9735 C.3       1 UNK         0.0864 
      6 C6        -80.4168   26.0957  -72.2705 C.3       11 UNK        -0.0881 
      7 S7        -79.4381   26.4437  -70.7675 S.3       11 UNK        -0.2682 
      8 C8        -77.7408   26.4680  -71.4329 C.3       11 UNK         0.0289 
      9 C9        -77.2314   27.8865  -71.6498 C.ar      11 UNK        -0.0687 
     10 C10       -77.8227   28.7180  -72.6068 C.ar      11 UNK        -0.0823 
     11 C11       -77.3286   30.0072  -72.8280 C.ar      11 UNK        -0.0830 
     12 C12       -76.2584   30.4753  -72.0633 C.ar      11 UNK        -0.1021 
     13 C13       -75.6399   29.6463  -71.1263 C.ar      11 UNK        -0.0753 
     14 C14       -76.1366   28.3564  -70.9164 C.ar      11 UNK        -0.0933 
     15 C15       -74.4197   30.1341  -70.3615 C.3       11 UNK         0.0166 
     16 S16       -72.8913   29.8827  -71.3226 S.3       11 UNK        -0.2615 
     17 C17       -72.8156   31.3807  -72.3719 C.3       11 UNK        -0.0865 
     18 CA        -73.2423   31.1548  -73.8568 C.3       10 UNK         0.0862 
     19 C         -73.2346   32.4642  -74.7037 C.2       10 UNK         0.5551 
     20 N         -73.7773   33.5568  -74.1812 N.am      10 UNK        -0.7319 
     21 O         -72.7763   32.5045  -75.8446 O.2       10 UNK        -0.5018 
     22 N         -72.5437   30.0387  -74.5090 N.am      10 UNK        -0.4509 
     23 C         -71.2264   29.9124  -74.7140 C.2       10 UNK         0.4899 
     24 O         -70.3805   30.7272  -74.3398 O.2       10 UNK        -0.4839 
     25 CA        -70.7976   28.6409  -75.4715 C.3       9 UNK         0.0222 
     26 CB        -69.2746   28.3901  -75.4482 C.3       9 UNK        -0.1966 
     27 N         -71.5490   27.4639  -75.0209 N.am      9 UNK        -0.4218 
     28 C         -71.5258   26.8851  -73.8096 C.2       9 UNK         0.5020 
     29 O         -70.7485   27.1937  -72.9056 O.2       9 UNK        -0.5274 
     30 CA        -72.5594   25.7716  -73.5531 C.3       8 UNK         0.0270 
     31 CB        -73.7548   26.3304  -72.7615 C.3       8 UNK        -0.1976 
     32 N         -73.0570   25.1435  -74.7793 N.am      8 UNK        -0.4313 
     33 C         -72.3384   24.3587  -75.5938 C.2       8 UNK         0.5041 
     34 O         -71.1805   24.0069  -75.3658 O.2       8 UNK        -0.5577 
     35 CA        -73.0195   23.9225  -76.9006 C.3       7 UNK         0.0284 
     36 CB        -73.9309   22.7058  -76.6676 C.3       7 UNK        -0.1958 
     37 N         -73.7895   25.0130  -77.5065 N.am      7 UNK        -0.4454 
     38 C         -73.2489   26.0583  -78.1491 C.2       7 UNK         0.5089 
     39 O         -72.0401   26.2004  -78.3303 O.2       7 UNK        -0.5125 
     40 CA        -74.2168   27.1384  -78.6654 C.3       6 UNK         0.0408 
     41 CB        -74.7084   26.7884  -80.0786 C.3       6 UNK        -0.1791 
     42 N         -75.3703   27.3484  -77.7868 N.am      6 UNK        -0.4762 
     43 C         -75.3033   27.9065  -76.5687 C.2       6 UNK         0.5007 
     44 O         -74.2578   28.3116  -76.0590 O.2       6 UNK        -0.5032 
     45 CA        -76.6157   27.9526  -75.7583 C.3       5 UNK         0.0783 
     46 C46       -77.4974   29.1714  -76.1363 C.3       11 UNK        -0.0857 
     47 S47       -76.9162   30.7559  -75.4463 S.3       11 UNK        -0.2512 
     48 C48       -77.9090   30.8867  -73.9227 C.3       11 UNK         0.0225 
     49 N         -77.3933   26.7118  -75.8632 N.am      5 UNK        -0.4615 
     50 C         -76.9627   25.4755  -75.5807 C.2       4 UNK         0.5053 
     51 O         -75.8294   25.2387  -75.1672 O.2       4 UNK        -0.5105 
     52 CA        -77.9344   24.3004  -75.8097 C.3       4 UNK         0.0263 
     53 CB        -77.9726   23.3692  -74.5867 C.3       4 UNK        -0.1981 
     54 N         -79.3030   24.7057  -76.1555 N.am      4 UNK        -0.4224 
     55 C         -79.7019   25.1355  -77.3621 C.2       3 UNK         0.4895 
     56 O         -78.9302   25.2738  -78.3121 O.2       3 UNK        -0.5091 
     57 CA        -81.1847   25.5341  -77.5265 C.3       3 UNK         0.0250 
     58 CB        -81.7328   25.1843  -78.9268 C.3       3 UNK        -0.1996 
     59 N         -82.0765   25.0348  -76.4685 N.am      3 UNK        -0.4254 
     60 C         -82.3965   23.7613  -76.1945 C.2       2 UNK         0.5004 
     61 O         -81.9499   22.7909  -76.8080 O.2       2 UNK        -0.5226 
     62 CA        -83.3422   23.5504  -74.9968 C.3       2 UNK         0.0269 
     63 CB        -83.8085   22.0889  -74.8588 C.3       2 UNK        -0.1926 
     64 N         -82.6965   23.9550  -73.7469 N.am      2 UNK        -0.4687 
     65 C         -82.5675   25.2076  -73.2929 C.2       1 UNK         0.5165 
     66 O         -83.0260   26.1810  -73.8933 O.2       1 UNK        -0.5079 
     67 H67       -80.0435   21.8863  -69.8150 H         1 UNK         0.0900 
     68 H68       -81.6424   22.4315  -69.3048 H         1 UNK         0.0900 
     69 H69       -81.4904   21.1531  -70.5129 H         1 UNK         0.0900 
     70 H70       -82.2153   24.3600  -70.2201 H         1 UNK         0.2959 
     71 H71       -82.3827   26.1622  -71.4167 H         1 UNK         0.1079 
     72 H72       -80.5615   27.0391  -72.7999 H         1 UNK         0.0837 
     73 H73       -79.8352   25.4592  -72.9369 H         1 UNK         0.0837 
     74 H74       -77.6768   25.9142  -72.3697 H         1 UNK         0.0685 
     75 H75       -77.0965   25.9373  -70.7304 H         1 UNK         0.0685 
     76 H76       -78.6490   28.3517  -73.1984 H         1 UNK         0.1434 
     77 H77       -75.8776   31.4728  -72.2308 H         1 UNK         0.1329 
     78 H78       -75.6570   27.7121  -70.1924 H         1 UNK         0.1335 
     79 H79       -74.5320   31.1840  -70.0874 H         1 UNK         0.0680 
     80 H80       -74.3301   29.5870  -69.4218 H         1 UNK         0.0680 
     81 H81       -71.7933   31.7598  -72.3330 H         1 UNK         0.1032 
     82 H82       -73.4258   32.1551  -71.9075 H         1 UNK         0.1032 
     83 H83       -74.2821   30.8359  -73.8603 H         1 UNK         0.0461 
     84 H84       -73.7868   34.4017  -74.7310 H         1 UNK         0.3453 
     85 H85       -74.1880   33.5583  -73.2620 H         1 UNK         0.3453 
     86 H86       -73.1532   29.3425  -74.9301 H         1 UNK         0.2984 
     87 H87       -71.0864   28.7966  -76.5120 H         1 UNK         0.0554 
     88 H88       -68.7386   29.2138  -75.9211 H         1 UNK         0.0847 
     89 H89       -69.0145   27.4805  -75.9895 H         1 UNK         0.0847 
     90 H90       -68.8917   28.2983  -74.4316 H         1 UNK         0.0847 
     91 H91       -72.2670   27.1473  -75.6592 H         1 UNK         0.3141 
     92 H92       -72.0746   25.0009  -72.9505 H         1 UNK         0.0743 
     93 H93       -74.4815   25.5514  -72.5303 H         1 UNK         0.0784 
     94 H94       -73.4286   26.7624  -71.8145 H         1 UNK         0.0784 
     95 H95       -74.2722   27.1167  -73.3133 H         1 UNK         0.0784 
     96 H96       -74.0382   25.3051  -75.0064 H         1 UNK         0.3213 
     97 H97       -72.2353   23.6266  -77.6013 H         1 UNK         0.0855 
     98 H98       -74.7374   22.9252  -75.9676 H         1 UNK         0.0814 
     99 H99       -73.3631   21.8708  -76.2549 H         1 UNK         0.0814 
    100 H100      -74.3793   22.3615  -77.5996 H         1 UNK         0.0814 
    101 H101      -74.7881   25.0039  -77.3599 H         1 UNK         0.3105 
    102 H102      -73.6623   28.0777  -78.7231 H         1 UNK         0.0547 
    103 H103      -75.2950   25.8689  -80.0887 H         1 UNK         0.0837 
    104 H104      -73.8678   26.6458  -80.7593 H         1 UNK         0.0837 
    105 H105      -75.3257   27.5856  -80.4929 H         1 UNK         0.0837 
    106 H106      -76.2678   27.0249  -78.1208 H         1 UNK         0.3020 
    107 H107      -76.3159   28.0394  -74.7132 H         1 UNK         0.1245 
    108 H108      -78.5208   29.0176  -75.7908 H         1 UNK         0.0781 
    109 H109      -77.5764   29.2747  -77.2203 H         1 UNK         0.0781 
    110 H110      -78.9509   30.6312  -74.1215 H         1 UNK         0.0836 
    111 H111      -77.9114   31.9269  -73.5933 H         1 UNK         0.0836 
    112 H112      -78.3304   26.8029  -76.2237 H         1 UNK         0.3022 
    113 H113      -77.5325   23.7254  -76.6467 H         1 UNK         0.0747 
    114 H114      -78.2868   23.8932  -73.6851 H         1 UNK         0.0793 
    115 H115      -78.6547   22.5329  -74.7420 H         1 UNK         0.0793 
    116 H116      -76.9876   22.9460  -74.3849 H         1 UNK         0.0793 
    117 H117      -79.9992   24.6116  -75.4313 H         1 UNK         0.3047 
    118 H118      -81.2041   26.6212  -77.4364 H         1 UNK         0.0822 
    119 H119      -82.7723   25.4937  -79.0353 H         1 UNK         0.0807 
    120 H120      -81.6777   24.1143  -79.1290 H         1 UNK         0.0807 
    121 H121      -81.1644   25.6896  -79.7087 H         1 UNK         0.0807 
    122 H122      -82.4726   25.7431  -75.8579 H         1 UNK         0.2946 
    123 H123      -84.2267   24.1700  -75.1634 H         1 UNK         0.1144 
    124 H124      -84.5209   21.9764  -74.0414 H         1 UNK         0.0793 
    125 H125      -82.9730   21.4135  -74.6701 H         1 UNK         0.0793 
    126 H126      -84.3049   21.7494  -75.7690 H         1 UNK         0.0793 
    127 H127      -82.1868   23.2367  -73.2439 H         1 UNK         0.2896 
@<TRIPOS>BOND
     1    1    2 1    
     2    1   67 1    
     3    1   68 1    
     4    1   69 1    
     5    2    3 2    
     6    2    4 am   BACKBONE|DICT|INTERRES
     7    4    5 1    
     8    4   70 1    
     9    5    6 1    
    10    5   65 1    
    11    5   71 1    
    12    6    7 1    
    13    6   72 1    
    14    6   73 1    
    15    7    8 1    
    16    8    9 1    
    17    8   74 1    
    18    8   75 1    
    19    9   10 ar   
    20    9   14 ar   
    21   10   11 ar   
    22   10   76 1    
    23   11   12 ar   
    24   11   48 1    
    25   12   13 ar   
    26   12   77 1    
    27   13   14 ar   
    28   13   15 1    
    29   14   78 1    
    30   15   16 1    
    31   15   79 1    
    32   15   80 1    
    33   16   17 1    
    34   17   18 1    
    35   17   81 1    
    36   17   82 1    
    37   18   19 1    
    38   18   22 1    
    39   18   83 1    
    40   19   20 am   BACKBONE|DICT|INTERRES
    41   19   21 2    
    42   20   84 1    
    43   20   85 1    
    44   22   23 am   BACKBONE|DICT|INTERRES
    45   22   86 1    
    46   23   24 2    
    47   23   25 1    
    48   25   26 1    
    49   25   27 1    
    50   25   87 1    
    51   26   88 1    
    52   26   89 1    
    53   26   90 1    
    54   27   28 am   BACKBONE|DICT|INTERRES
    55   27   91 1    
    56   28   29 2    
    57   28   30 1    
    58   30   31 1    
    59   30   32 1    
    60   30   92 1    
    61   31   93 1    
    62   31   94 1    
    63   31   95 1    
    64   32   33 am   BACKBONE|DICT|INTERRES
    65   32   96 1    
    66   33   34 2    
    67   33   35 1    
    68   35   36 1    
    69   35   37 1    
    70   35   97 1    
    71   36   98 1    
    72   36   99 1    
    73   36  100 1    
    74   37   38 am   BACKBONE|DICT|INTERRES
    75   37  101 1    
    76   38   39 2    
    77   38   40 1    
    78   40   41 1    
    79   40   42 1    
    80   40  102 1    
    81   41  103 1    
    82   41  104 1    
    83   41  105 1    
    84   42   43 am   BACKBONE|DICT|INTERRES
    85   42  106 1    
    86   43   44 2    
    87   43   45 1    
    88   45   46 1    
    89   45   49 1    
    90   45  107 1    
    91   46   47 1    
    92   46  108 1    
    93   46  109 1    
    94   47   48 1    
    95   48  110 1    
    96   48  111 1    
    97   49   50 am   BACKBONE|DICT|INTERRES
    98   49  112 1    
    99   50   51 2    
   100   50   52 1    
   101   52   53 1    
   102   52   54 1    
   103   52  113 1    
   104   53  114 1    
   105   53  115 1    
   106   53  116 1    
   107   54   55 am   BACKBONE|DICT|INTERRES
   108   54  117 1    
   109   55   56 2    
   110   55   57 1    
   111   57   58 1    
   112   57   59 1    
   113   57  118 1    
   114   58  119 1    
   115   58  120 1    
   116   58  121 1    
   117   59   60 am   BACKBONE|DICT|INTERRES
   118   59  122 1    
   119   60   61 2    
   120   60   62 1    
   121   62   63 1    
   122   62   64 1    
   123   62  123 1    
   124   63  124 1    
   125   63  125 1    
   126   63  126 1    
   127   64   65 am   BACKBONE|DICT|INTERRES
   128   64  127 1    
   129   65   66 2    
@<TRIPOS>SUBSTRUCTURE
     1 UNK         1 GROUP             0       ****    0 ROOT    
