@<TRIPOS>MOLECULE
3R135
127   129    1
SMALL
USER_CHARGES


@<TRIPOS>ATOM
      1 CA        -82.3802   25.6823  -72.2375 C.3       0 UNK        -0.1998 
      2 C         -82.4977   26.6263  -73.4241 C.2       0 UNK         0.4909 
      3 O         -83.4948   26.5909  -74.1453 O.2       0 UNK        -0.5240 
      4 N         -81.4741   27.4590  -73.6508 N.am      1 UNK        -0.4739 
      5 CA        -81.4169   28.4883  -74.6981 C.3       1 UNK         0.0864 
      6 C6        -80.4841   29.6574  -74.2802 C.3       11 UNK        -0.0881 
      7 S7        -81.0982   30.6621  -72.8847 S.3       11 UNK        -0.2682 
      8 C8        -80.7650   29.6594  -71.3901 C.3       11 UNK         0.0289 
      9 C9        -79.3571   29.0740  -71.2821 C.ar      11 UNK        -0.0687 
     10 C10       -79.1930   27.7557  -70.8428 C.ar      11 UNK        -0.0823 
     11 C11       -77.9173   27.2129  -70.6588 C.ar      11 UNK        -0.0830 
     12 C12       -76.7924   27.9937  -70.9436 C.ar      11 UNK        -0.1021 
     13 C13       -76.9389   29.3191  -71.3694 C.ar      11 UNK        -0.0753 
     14 C14       -78.2221   29.8528  -71.5335 C.ar      11 UNK        -0.0933 
     15 C15       -75.7164   30.2018  -71.5803 C.3       11 UNK         0.0166 
     16 S16       -75.4337   30.5823  -73.3365 S.3       11 UNK        -0.2615 
     17 C17       -74.0383   31.7563  -73.2142 C.3       11 UNK        -0.0865 
     18 CA        -72.6492   31.1709  -73.5919 C.3       10 UNK         0.0862 
     19 C         -72.0816   30.1861  -72.5298 C.2       10 UNK         0.5551 
     20 N         -71.8385   30.6622  -71.3158 N.am      10 UNK        -0.7319 
     21 O         -71.8588   29.0048  -72.7845 O.2       10 UNK        -0.5018 
     22 N         -72.6477   30.6175  -74.9524 N.am      10 UNK        -0.4509 
     23 C         -71.5737   30.5488  -75.7467 C.2       10 UNK         0.4899 
     24 O         -70.4664   31.0079  -75.4581 O.2       10 UNK        -0.4839 
     25 CA        -71.7988   29.8460  -77.0923 C.3       9 UNK         0.0222 
     26 CB        -70.7825   30.2559  -78.1807 C.3       9 UNK        -0.1966 
     27 N         -71.8710   28.3932  -76.9146 N.am      9 UNK        -0.4218 
     28 C         -70.8812   27.5282  -76.6334 C.2       9 UNK         0.5020 
     29 O         -69.6994   27.8520  -76.5068 O.2       9 UNK        -0.5274 
     30 CA        -71.2499   26.0348  -76.4674 C.3       8 UNK         0.0270 
     31 CB        -70.9559   25.5617  -75.0332 C.3       8 UNK        -0.1976 
     32 N         -72.6450   25.7187  -76.7824 N.am      8 UNK        -0.4313 
     33 C         -73.2110   25.7623  -77.9969 C.2       8 UNK         0.5041 
     34 O         -72.5782   25.9288  -79.0398 O.2       8 UNK        -0.5577 
     35 CA        -74.7488   25.6581  -78.0547 C.3       7 UNK         0.0284 
     36 CB        -75.1715   24.2624  -78.5371 C.3       7 UNK        -0.1958 
     37 N         -75.4164   25.9570  -76.7801 N.am      7 UNK        -0.4454 
     38 C         -75.3442   27.1196  -76.1124 C.2       7 UNK         0.5089 
     39 O         -74.7296   28.1055  -76.5209 O.2       7 UNK        -0.5125 
     40 CA        -76.0052   27.1683  -74.7308 C.3       6 UNK         0.0408 
     41 CB        -77.4599   27.6254  -74.8375 C.3       6 UNK        -0.1791 
     42 N         -75.9697   25.8715  -74.0653 N.am      6 UNK        -0.4762 
     43 C         -74.9847   25.4535  -73.2610 C.2       6 UNK         0.5007 
     44 O         -73.9829   26.1166  -72.9970 O.2       6 UNK        -0.5032 
     45 CA        -75.1405   24.0455  -72.6536 C.3       5 UNK         0.0783 
     46 C46       -75.8323   24.1060  -71.2685 C.3       11 UNK        -0.0857 
     47 S47       -77.6164   24.5205  -71.3349 S.3       11 UNK        -0.2512 
     48 C48       -77.7670   25.8172  -70.0652 C.3       11 UNK         0.0225 
     49 N         -75.8096   23.1069  -73.5604 N.am      5 UNK        -0.4615 
     50 C         -75.3265   22.7005  -74.7419 C.2       4 UNK         0.5053 
     51 O         -74.2159   23.0134  -75.1710 O.2       4 UNK        -0.5105 
     52 CA        -76.2527   21.8263  -75.6087 C.3       4 UNK         0.0263 
     53 CB        -75.9803   20.3372  -75.3422 C.3       4 UNK        -0.1981 
     54 N         -77.6869   22.0958  -75.4387 N.am      4 UNK        -0.4224 
     55 C         -78.2891   23.2799  -75.6230 C.2       3 UNK         0.4895 
     56 O         -77.6877   24.3178  -75.9094 O.2       3 UNK        -0.5091 
     57 CA        -79.8075   23.3030  -75.3781 C.3       3 UNK         0.0250 
     58 CB        -80.1094   23.2742  -73.8709 C.3       3 UNK        -0.1996 
     59 N         -80.4641   24.4772  -75.9544 N.am      3 UNK        -0.4254 
     60 C         -80.6682   24.7017  -77.2597 C.2       2 UNK         0.5004 
     61 O         -80.3160   23.9243  -78.1481 O.2       2 UNK        -0.5226 
     62 CA        -81.4313   25.9869  -77.6422 C.3       2 UNK         0.0269 
     63 CB        -82.7497   25.6413  -78.3562 C.3       2 UNK        -0.1926 
     64 N         -81.7401   26.8234  -76.4762 N.am      2 UNK        -0.4687 
     65 C         -81.0086   27.8619  -76.0540 C.2       1 UNK         0.5165 
     66 O         -80.0362   28.2940  -76.6737 O.2       1 UNK        -0.5079 
     67 H67       -82.7896   24.7054  -72.4894 H         1 UNK         0.0900 
     68 H68       -81.3451   25.5429  -71.9299 H         1 UNK         0.0900 
     69 H69       -82.9405   26.0751  -71.3906 H         1 UNK         0.0900 
     70 H70       -80.6663   27.4266  -73.0459 H         1 UNK         0.2959 
     71 H71       -82.4184   28.9010  -74.8417 H         1 UNK         0.1079 
     72 H72       -79.4830   29.3025  -74.0486 H         1 UNK         0.0837 
     73 H73       -80.3604   30.3525  -75.1131 H         1 UNK         0.0837 
     74 H74       -80.9336   30.2921  -70.5178 H         1 UNK         0.0685 
     75 H75       -81.5169   28.8722  -71.3294 H         1 UNK         0.0685 
     76 H76       -80.0612   27.1602  -70.5971 H         1 UNK         0.1434 
     77 H77       -75.8033   27.5816  -70.7962 H         1 UNK         0.1329 
     78 H78       -78.3355   30.8825  -71.8438 H         1 UNK         0.1335 
     79 H79       -75.8524   31.1314  -71.0256 H         1 UNK         0.0680 
     80 H80       -74.8242   29.7248  -71.1715 H         1 UNK         0.0680 
     81 H81       -74.2613   32.5873  -73.8850 H         1 UNK         0.1032 
     82 H82       -74.0139   32.2024  -72.2189 H         1 UNK         0.1032 
     83 H83       -71.9568   32.0153  -73.5960 H         1 UNK         0.0461 
     84 H84       -71.4689   30.0395  -70.6149 H         1 UNK         0.3453 
     85 H85       -71.9939   31.6316  -71.0898 H         1 UNK         0.3453 
     86 H86       -73.5049   30.1650  -75.2409 H         1 UNK         0.2984 
     87 H87       -72.7836   30.1508  -77.4510 H         1 UNK         0.0554 
     88 H88       -70.8391   31.3277  -78.3749 H         1 UNK         0.0847 
     89 H89       -70.9821   29.7439  -79.1220 H         1 UNK         0.0847 
     90 H90       -69.7538   30.0388  -77.8923 H         1 UNK         0.0847 
     91 H91       -72.8192   28.0275  -76.9248 H         1 UNK         0.3141 
     92 H92       -70.6168   25.4683  -77.1532 H         1 UNK         0.0743 
     93 H93       -71.5366   26.1229  -74.2993 H         1 UNK         0.0784 
     94 H94       -71.1850   24.5031  -74.9062 H         1 UNK         0.0784 
     95 H95       -69.9024   25.6970  -74.7843 H         1 UNK         0.0784 
     96 H96       -73.2514   25.5349  -75.9947 H         1 UNK         0.3213 
     97 H97       -75.0986   26.3945  -78.7812 H         1 UNK         0.0855 
     98 H98       -74.7497   23.4802  -77.9067 H         1 UNK         0.0814 
     99 H99       -74.8183   24.0812  -79.5531 H         1 UNK         0.0814 
    100 H100      -76.2561   24.1486  -78.5445 H         1 UNK         0.0814 
    101 H101      -76.0136   25.2310  -76.3942 H         1 UNK         0.3105 
    102 H102      -75.4613   27.8915  -74.1237 H         1 UNK         0.0547 
    103 H103      -77.5211   28.6220  -75.2764 H         1 UNK         0.0837 
    104 H104      -78.0505   26.9525  -75.4593 H         1 UNK         0.0837 
    105 H105      -77.9217   27.6660  -73.8516 H         1 UNK         0.0837 
    106 H106      -76.7326   25.2379  -74.2725 H         1 UNK         0.3020 
    107 H107      -74.1264   23.6688  -72.4993 H         1 UNK         0.1245 
    108 H108      -75.3037   24.8069  -70.6200 H         1 UNK         0.0781 
    109 H109      -75.7409   23.1357  -70.7780 H         1 UNK         0.0781 
    110 H110      -76.9198   25.7905  -69.3790 H         1 UNK         0.0836 
    111 H111      -78.6387   25.5863  -69.4509 H         1 UNK         0.0836 
    112 H112      -76.7330   22.8075  -73.2833 H         1 UNK         0.3022 
    113 H113      -76.0124   22.0297  -76.6526 H         1 UNK         0.0747 
    114 H114      -76.5478   19.7006  -76.0217 H         1 UNK         0.0793 
    115 H115      -74.9249   20.1012  -75.4878 H         1 UNK         0.0793 
    116 H116      -76.2390   20.0552  -74.3207 H         1 UNK         0.0793 
    117 H117      -78.2594   21.3027  -75.1861 H         1 UNK         0.3047 
    118 H118      -80.2379   22.4126  -75.8416 H         1 UNK         0.0822 
    119 H119      -79.6328   22.4249  -73.3800 H         1 UNK         0.0807 
    120 H120      -81.1800   23.1871  -73.6860 H         1 UNK         0.0807 
    121 H121      -79.7549   24.1780  -73.3751 H         1 UNK         0.0807 
    122 H122      -80.7561   25.1943  -75.3097 H         1 UNK         0.2946 
    123 H123      -80.7975   26.5381  -78.3410 H         1 UNK         0.1144 
    124 H124      -83.2773   26.5420  -78.6707 H         1 UNK         0.0793 
    125 H125      -83.4185   25.0675  -77.7134 H         1 UNK         0.0793 
    126 H126      -82.5675   25.0463  -79.2523 H         1 UNK         0.0793 
    127 H127      -82.5291   26.5434  -75.8999 H         1 UNK         0.2896 
@<TRIPOS>BOND
     1    1    2 1    
     2    1   67 1    
     3    1   68 1    
     4    1   69 1    
     5    2    3 2    
     6    2    4 am   BACKBONE|DICT|INTERRES
     7    4    5 1    
     8    4   70 1    
     9    5    6 1    
    10    5   65 1    
    11    5   71 1    
    12    6    7 1    
    13    6   72 1    
    14    6   73 1    
    15    7    8 1    
    16    8    9 1    
    17    8   74 1    
    18    8   75 1    
    19    9   10 ar   
    20    9   14 ar   
    21   10   11 ar   
    22   10   76 1    
    23   11   12 ar   
    24   11   48 1    
    25   12   13 ar   
    26   12   77 1    
    27   13   14 ar   
    28   13   15 1    
    29   14   78 1    
    30   15   16 1    
    31   15   79 1    
    32   15   80 1    
    33   16   17 1    
    34   17   18 1    
    35   17   81 1    
    36   17   82 1    
    37   18   19 1    
    38   18   22 1    
    39   18   83 1    
    40   19   20 am   BACKBONE|DICT|INTERRES
    41   19   21 2    
    42   20   84 1    
    43   20   85 1    
    44   22   23 am   BACKBONE|DICT|INTERRES
    45   22   86 1    
    46   23   24 2    
    47   23   25 1    
    48   25   26 1    
    49   25   27 1    
    50   25   87 1    
    51   26   88 1    
    52   26   89 1    
    53   26   90 1    
    54   27   28 am   BACKBONE|DICT|INTERRES
    55   27   91 1    
    56   28   29 2    
    57   28   30 1    
    58   30   31 1    
    59   30   32 1    
    60   30   92 1    
    61   31   93 1    
    62   31   94 1    
    63   31   95 1    
    64   32   33 am   BACKBONE|DICT|INTERRES
    65   32   96 1    
    66   33   34 2    
    67   33   35 1    
    68   35   36 1    
    69   35   37 1    
    70   35   97 1    
    71   36   98 1    
    72   36   99 1    
    73   36  100 1    
    74   37   38 am   BACKBONE|DICT|INTERRES
    75   37  101 1    
    76   38   39 2    
    77   38   40 1    
    78   40   41 1    
    79   40   42 1    
    80   40  102 1    
    81   41  103 1    
    82   41  104 1    
    83   41  105 1    
    84   42   43 am   BACKBONE|DICT|INTERRES
    85   42  106 1    
    86   43   44 2    
    87   43   45 1    
    88   45   46 1    
    89   45   49 1    
    90   45  107 1    
    91   46   47 1    
    92   46  108 1    
    93   46  109 1    
    94   47   48 1    
    95   48  110 1    
    96   48  111 1    
    97   49   50 am   BACKBONE|DICT|INTERRES
    98   49  112 1    
    99   50   51 2    
   100   50   52 1    
   101   52   53 1    
   102   52   54 1    
   103   52  113 1    
   104   53  114 1    
   105   53  115 1    
   106   53  116 1    
   107   54   55 am   BACKBONE|DICT|INTERRES
   108   54  117 1    
   109   55   56 2    
   110   55   57 1    
   111   57   58 1    
   112   57   59 1    
   113   57  118 1    
   114   58  119 1    
   115   58  120 1    
   116   58  121 1    
   117   59   60 am   BACKBONE|DICT|INTERRES
   118   59  122 1    
   119   60   61 2    
   120   60   62 1    
   121   62   63 1    
   122   62   64 1    
   123   62  123 1    
   124   63  124 1    
   125   63  125 1    
   126   63  126 1    
   127   64   65 am   BACKBONE|DICT|INTERRES
   128   64  127 1    
   129   65   66 2    
@<TRIPOS>SUBSTRUCTURE
     1 UNK         1 GROUP             0       ****    0 ROOT    
