@<TRIPOS>MOLECULE
3R135
127   129    1
SMALL
USER_CHARGES


@<TRIPOS>ATOM
      1 CA        -78.6333   28.4872  -75.7097 C.3       0 UNK        -0.1998 
      2 C         -79.8430   29.4178  -75.6852 C.2       0 UNK         0.4909 
      3 O         -79.9313   30.3132  -76.5232 O.2       0 UNK        -0.5240 
      4 N         -80.7878   29.2652  -74.7488 N.am      1 UNK        -0.4739 
      5 CA        -80.8610   28.2127  -73.7282 C.3       1 UNK         0.0864 
      6 C6        -81.8112   28.6010  -72.5629 C.3       11 UNK        -0.0881 
      7 S7        -81.4882   30.2577  -71.8622 S.3       11 UNK        -0.2682 
      8 C8        -80.3865   29.8847  -70.4613 C.3       11 UNK         0.0289 
      9 C9        -79.0235   29.3906  -70.9236 C.ar      11 UNK        -0.0687 
     10 C10       -78.6172   28.0805  -70.6484 C.ar      11 UNK        -0.0823 
     11 C11       -77.3679   27.6232  -71.0777 C.ar      11 UNK        -0.0830 
     12 C12       -76.5217   28.4895  -71.7724 C.ar      11 UNK        -0.1021 
     13 C13       -76.9236   29.7902  -72.0735 C.ar      11 UNK        -0.0753 
     14 C14       -78.1711   30.2428  -71.6355 C.ar      11 UNK        -0.0933 
     15 C15       -76.0183   30.6738  -72.9137 C.3       11 UNK         0.0166 
     16 S16       -74.5874   31.2738  -71.9654 S.3       11 UNK        -0.2615 
     17 C17       -73.5605   31.9281  -73.3259 C.3       11 UNK        -0.0865 
     18 CA        -72.1781   31.2388  -73.5255 C.3       10 UNK         0.0862 
     19 C         -71.0350   31.7533  -72.5957 C.2       10 UNK         0.5551 
     20 N         -69.8790   31.1004  -72.5783 N.am      10 UNK        -0.7319 
     21 O         -71.1722   32.7683  -71.9165 O.2       10 UNK        -0.5018 
     22 N         -72.2551   29.7804  -73.7536 N.am      10 UNK        -0.4509 
     23 C         -72.1263   28.7868  -72.8563 C.2       10 UNK         0.4899 
     24 O         -72.0230   28.9657  -71.6427 O.2       10 UNK        -0.4839 
     25 CA        -72.0745   27.3313  -73.3793 C.3       9 UNK         0.0222 
     26 CB        -73.2132   26.4829  -72.7930 C.3       9 UNK        -0.1966 
     27 N         -72.0931   27.1985  -74.8387 N.am      9 UNK        -0.4218 
     28 C         -71.0981   27.5532  -75.6644 C.2       9 UNK         0.5020 
     29 O         -69.9947   27.9425  -75.2798 O.2       9 UNK        -0.5274 
     30 CA        -71.4013   27.5189  -77.1737 C.3       8 UNK         0.0270 
     31 CB        -70.9624   26.1757  -77.7782 C.3       8 UNK        -0.1976 
     32 N         -72.8115   27.7528  -77.5039 N.am      8 UNK        -0.4313 
     33 C         -73.5480   28.8226  -77.1757 C.2       8 UNK         0.5041 
     34 O         -73.0974   29.7887  -76.5600 O.2       8 UNK        -0.5577 
     35 CA        -75.0477   28.8052  -77.5376 C.3       7 UNK         0.0284 
     36 CB        -75.3105   29.5716  -78.8479 C.3       7 UNK        -0.1958 
     37 N         -75.6677   27.4676  -77.5578 N.am      7 UNK        -0.4454 
     38 C         -75.4247   26.4383  -78.3822 C.2       7 UNK         0.5089 
     39 O         -74.6289   26.4964  -79.3205 O.2       7 UNK        -0.5125 
     40 CA        -76.1388   25.1064  -78.0696 C.3       6 UNK         0.0408 
     41 CB        -75.3396   23.8970  -78.5990 C.3       6 UNK        -0.1791 
     42 N         -76.4710   24.8957  -76.6519 N.am      6 UNK        -0.4762 
     43 C         -75.6315   24.9105  -75.6011 C.2       6 UNK         0.5007 
     44 O         -74.4575   25.2821  -75.6534 O.2       6 UNK        -0.5032 
     45 CA        -76.2159   24.4144  -74.2660 C.3       5 UNK         0.0783 
     46 C46       -77.0327   25.5360  -73.5807 C.3       11 UNK        -0.0857 
     47 S47       -77.7304   25.0305  -71.9710 S.3       11 UNK        -0.2512 
     48 C48       -76.9364   26.1890  -70.8123 C.3       11 UNK         0.0225 
     49 N         -77.0068   23.2000  -74.4842 N.am      5 UNK        -0.4615 
     50 C         -76.4926   21.9720  -74.6399 C.2       4 UNK         0.5053 
     51 O         -75.2897   21.7225  -74.5621 O.2       4 UNK        -0.5105 
     52 CA        -77.4776   20.8196  -74.9154 C.3       4 UNK         0.0263 
     53 CB        -77.8105   20.0811  -73.6087 C.3       4 UNK        -0.1981 
     54 N         -78.7235   21.2681  -75.5405 N.am      4 UNK        -0.4224 
     55 C         -78.8471   21.6375  -76.8238 C.2       3 UNK         0.4895 
     56 O         -77.9505   21.5245  -77.6583 O.2       3 UNK        -0.5091 
     57 CA        -80.1904   22.2675  -77.2425 C.3       3 UNK         0.0250 
     58 CB        -81.1045   21.2107  -77.8830 C.3       3 UNK        -0.1996 
     59 N         -80.9028   22.9234  -76.1377 N.am      3 UNK        -0.4254 
     60 C         -80.4388   23.9809  -75.4579 C.2       2 UNK         0.5004 
     61 O         -79.3690   24.5388  -75.7175 O.2       2 UNK        -0.5226 
     62 CA        -81.2625   24.4124  -74.2329 C.3       2 UNK         0.0269 
     63 CB        -81.0555   23.4204  -73.0748 C.3       2 UNK        -0.1926 
     64 N         -80.9037   25.7557  -73.7700 N.am      2 UNK        -0.4687 
     65 C         -81.3231   26.8820  -74.3591 C.2       1 UNK         0.5165 
     66 O         -82.0791   26.8964  -75.3345 O.2       1 UNK        -0.5079 
     67 H67       -77.9532   28.7939  -76.5023 H         1 UNK         0.0900 
     68 H68       -78.9324   27.4585  -75.9097 H         1 UNK         0.0900 
     69 H69       -78.0873   28.5278  -74.7674 H         1 UNK         0.0900 
     70 H70       -81.5756   29.8963  -74.7567 H         1 UNK         0.2959 
     71 H71       -79.8629   28.0652  -73.3131 H         1 UNK         0.1079 
     72 H72       -81.7582   27.8602  -71.7626 H         1 UNK         0.0837 
     73 H73       -82.8491   28.5978  -72.9028 H         1 UNK         0.0837 
     74 H74       -80.2515   30.7914  -69.8700 H         1 UNK         0.0685 
     75 H75       -80.8685   29.1595  -69.8037 H         1 UNK         0.0685 
     76 H76       -79.2745   27.4112  -70.1099 H         1 UNK         0.1434 
     77 H77       -75.5493   28.1530  -72.0981 H         1 UNK         0.1329 
     78 H78       -78.4908   31.2503  -71.8643 H         1 UNK         0.1335 
     79 H79       -75.6690   30.1001  -73.7741 H         1 UNK         0.0680 
     80 H80       -76.5702   31.5266  -73.3121 H         1 UNK         0.0680 
     81 H81       -73.4380   33.0018  -73.1731 H         1 UNK         0.1032 
     82 H82       -74.1181   31.8501  -74.2603 H         1 UNK         0.1032 
     83 H83       -71.8416   31.6066  -74.4958 H         1 UNK         0.0461 
     84 H84       -69.1316   31.4317  -71.9892 H         1 UNK         0.3453 
     85 H85       -69.7546   30.2711  -73.1379 H         1 UNK         0.3453 
     86 H86       -72.3712   29.5288  -74.7302 H         1 UNK         0.2984 
     87 H87       -71.1325   26.9111  -73.0213 H         1 UNK         0.0554 
     88 H88       -73.0690   25.4249  -73.0128 H         1 UNK         0.0847 
     89 H89       -74.1730   26.7798  -73.2080 H         1 UNK         0.0847 
     90 H90       -73.2725   26.5821  -71.7082 H         1 UNK         0.0847 
     91 H91       -72.9433   26.8304  -75.2509 H         1 UNK         0.3141 
     92 H92       -70.8208   28.3166  -77.6413 H         1 UNK         0.0743 
     93 H93       -71.5398   25.3441  -77.3712 H         1 UNK         0.0784 
     94 H94       -71.0835   26.1694  -78.8617 H         1 UNK         0.0784 
     95 H95       -69.9101   25.9774  -77.5693 H         1 UNK         0.0784 
     96 H96       -73.2749   27.0442  -78.0652 H         1 UNK         0.3213 
     97 H97       -75.5516   29.3502  -76.7377 H         1 UNK         0.0855 
     98 H98       -74.9438   30.5965  -78.7769 H         1 UNK         0.0814 
     99 H99       -76.3764   29.6241  -79.0697 H         1 UNK         0.0814 
    100 H100      -74.8117   29.1104  -79.7005 H         1 UNK         0.0814 
    101 H101      -76.2982   27.2737  -76.7942 H         1 UNK         0.3105 
    102 H102      -77.0895   25.1377  -78.6035 H         1 UNK         0.0547 
    103 H103      -75.2075   23.9524  -79.6802 H         1 UNK         0.0837 
    104 H104      -74.3467   23.8440  -78.1509 H         1 UNK         0.0837 
    105 H105      -75.8497   22.9582  -78.3878 H         1 UNK         0.0837 
    106 H106      -77.4355   24.6340  -76.4673 H         1 UNK         0.3020 
    107 H107      -75.3732   24.1652  -73.6166 H         1 UNK         0.1245 
    108 H108      -77.8596   25.8648  -74.2085 H         1 UNK         0.0781 
    109 H109      -76.4076   26.4156  -73.4501 H         1 UNK         0.0781 
    110 H110      -75.8522   26.0871  -70.8817 H         1 UNK         0.0836 
    111 H111      -77.2041   25.9100  -69.7921 H         1 UNK         0.0836 
    112 H112      -77.9996   23.3420  -74.6101 H         1 UNK         0.3022 
    113 H113      -76.9842   20.1171  -75.5907 H         1 UNK         0.0747 
    114 H114      -78.4571   19.2224  -73.7911 H         1 UNK         0.0793 
    115 H115      -76.9039   19.7059  -73.1315 H         1 UNK         0.0793 
    116 H116      -78.3099   20.7332  -72.8907 H         1 UNK         0.0793 
    117 H117      -79.5267   21.3632  -74.9374 H         1 UNK         0.3047 
    118 H118      -79.9688   23.0299  -77.9927 H         1 UNK         0.0822 
    119 H119      -82.0223   21.6581  -78.2653 H         1 UNK         0.0807 
    120 H120      -81.3803   20.4296  -77.1733 H         1 UNK         0.0807 
    121 H121      -80.6088   20.7252  -78.7251 H         1 UNK         0.0807 
    122 H122      -81.7852   22.5139  -75.8646 H         1 UNK         0.2946 
    123 H123      -82.3191   24.4090  -74.5122 H         1 UNK         0.1144 
    124 H124      -81.4129   22.4241  -73.3377 H         1 UNK         0.0793 
    125 H125      -81.6049   23.7294  -72.1852 H         1 UNK         0.0793 
    126 H126      -80.0045   23.3259  -72.8011 H         1 UNK         0.0793 
    127 H127      -80.2599   25.8051  -72.9930 H         1 UNK         0.2896 
@<TRIPOS>BOND
     1    1    2 1    
     2    1   67 1    
     3    1   68 1    
     4    1   69 1    
     5    2    3 2    
     6    2    4 am   BACKBONE|DICT|INTERRES
     7    4    5 1    
     8    4   70 1    
     9    5    6 1    
    10    5   65 1    
    11    5   71 1    
    12    6    7 1    
    13    6   72 1    
    14    6   73 1    
    15    7    8 1    
    16    8    9 1    
    17    8   74 1    
    18    8   75 1    
    19    9   10 ar   
    20    9   14 ar   
    21   10   11 ar   
    22   10   76 1    
    23   11   12 ar   
    24   11   48 1    
    25   12   13 ar   
    26   12   77 1    
    27   13   14 ar   
    28   13   15 1    
    29   14   78 1    
    30   15   16 1    
    31   15   79 1    
    32   15   80 1    
    33   16   17 1    
    34   17   18 1    
    35   17   81 1    
    36   17   82 1    
    37   18   19 1    
    38   18   22 1    
    39   18   83 1    
    40   19   20 am   BACKBONE|DICT|INTERRES
    41   19   21 2    
    42   20   84 1    
    43   20   85 1    
    44   22   23 am   BACKBONE|DICT|INTERRES
    45   22   86 1    
    46   23   24 2    
    47   23   25 1    
    48   25   26 1    
    49   25   27 1    
    50   25   87 1    
    51   26   88 1    
    52   26   89 1    
    53   26   90 1    
    54   27   28 am   BACKBONE|DICT|INTERRES
    55   27   91 1    
    56   28   29 2    
    57   28   30 1    
    58   30   31 1    
    59   30   32 1    
    60   30   92 1    
    61   31   93 1    
    62   31   94 1    
    63   31   95 1    
    64   32   33 am   BACKBONE|DICT|INTERRES
    65   32   96 1    
    66   33   34 2    
    67   33   35 1    
    68   35   36 1    
    69   35   37 1    
    70   35   97 1    
    71   36   98 1    
    72   36   99 1    
    73   36  100 1    
    74   37   38 am   BACKBONE|DICT|INTERRES
    75   37  101 1    
    76   38   39 2    
    77   38   40 1    
    78   40   41 1    
    79   40   42 1    
    80   40  102 1    
    81   41  103 1    
    82   41  104 1    
    83   41  105 1    
    84   42   43 am   BACKBONE|DICT|INTERRES
    85   42  106 1    
    86   43   44 2    
    87   43   45 1    
    88   45   46 1    
    89   45   49 1    
    90   45  107 1    
    91   46   47 1    
    92   46  108 1    
    93   46  109 1    
    94   47   48 1    
    95   48  110 1    
    96   48  111 1    
    97   49   50 am   BACKBONE|DICT|INTERRES
    98   49  112 1    
    99   50   51 2    
   100   50   52 1    
   101   52   53 1    
   102   52   54 1    
   103   52  113 1    
   104   53  114 1    
   105   53  115 1    
   106   53  116 1    
   107   54   55 am   BACKBONE|DICT|INTERRES
   108   54  117 1    
   109   55   56 2    
   110   55   57 1    
   111   57   58 1    
   112   57   59 1    
   113   57  118 1    
   114   58  119 1    
   115   58  120 1    
   116   58  121 1    
   117   59   60 am   BACKBONE|DICT|INTERRES
   118   59  122 1    
   119   60   61 2    
   120   60   62 1    
   121   62   63 1    
   122   62   64 1    
   123   62  123 1    
   124   63  124 1    
   125   63  125 1    
   126   63  126 1    
   127   64   65 am   BACKBONE|DICT|INTERRES
   128   64  127 1    
   129   65   66 2    
@<TRIPOS>SUBSTRUCTURE
     1 UNK         1 GROUP             0       ****    0 ROOT    
