@<TRIPOS>MOLECULE
3R135
127   129    1
SMALL
USER_CHARGES


@<TRIPOS>ATOM
      1 CA        -83.4319   26.7964  -76.7106 C.3       0 UNK        -0.1998 
      2 C         -82.1370   27.4427  -76.2438 C.2       0 UNK         0.4909 
      3 O         -81.2390   27.6737  -77.0547 O.2       0 UNK        -0.5240 
      4 N         -82.0364   27.7416  -74.9412 N.am      1 UNK        -0.4739 
      5 CA        -80.8748   28.3912  -74.3246 C.3       1 UNK         0.0864 
      6 C6        -81.1738   28.8514  -72.8764 C.3       11 UNK        -0.0881 
      7 S7        -80.1576   30.2921  -72.4039 S.3       11 UNK        -0.2682 
      8 C8        -79.6020   29.8433  -70.7297 C.3       11 UNK         0.0289 
      9 C9        -78.4605   28.8348  -70.7345 C.ar      11 UNK        -0.0687 
     10 C10       -78.6760   27.5191  -70.3157 C.ar      11 UNK        -0.0823 
     11 C11       -77.6155   26.6101  -70.2457 C.ar      11 UNK        -0.0830 
     12 C12       -76.3286   27.0354  -70.5976 C.ar      11 UNK        -0.1021 
     13 C13       -76.0977   28.3417  -71.0413 C.ar      11 UNK        -0.0753 
     14 C14       -77.1739   29.2347  -71.1077 C.ar      11 UNK        -0.0933 
     15 C15       -74.6888   28.7513  -71.4688 C.3       11 UNK         0.0166 
     16 S16       -74.0731   30.2546  -70.6400 S.3       11 UNK        -0.2615 
     17 C17       -74.5694   31.5767  -71.8066 C.3       11 UNK        -0.0865 
     18 CA        -73.4038   32.1576  -72.6509 C.3       10 UNK         0.0862 
     19 C         -72.4134   33.0150  -71.8086 C.2       10 UNK         0.5551 
     20 N         -71.1164   32.7310  -71.8145 N.am      10 UNK        -0.7319 
     21 O         -72.8287   33.9684  -71.1542 O.2       10 UNK        -0.5018 
     22 N         -72.7740   31.1172  -73.4808 N.am      10 UNK        -0.4509 
     23 C         -72.2518   31.3126  -74.6975 C.2       10 UNK         0.4899 
     24 O         -72.2585   32.3944  -75.2848 O.2       10 UNK        -0.4839 
     25 CA        -71.6548   30.0887  -75.4025 C.3       9 UNK         0.0222 
     26 CB        -71.2050   28.9635  -74.4420 C.3       9 UNK        -0.1966 
     27 N         -72.6569   29.5906  -76.3386 N.am      9 UNK        -0.4218 
     28 C         -72.4195   28.8050  -77.3939 C.2       9 UNK         0.5020 
     29 O         -71.2964   28.4483  -77.7592 O.2       9 UNK        -0.5274 
     30 CA        -73.6590   28.3375  -78.1798 C.3       8 UNK         0.0270 
     31 CB        -73.7390   29.0395  -79.5453 C.3       8 UNK        -0.1976 
     32 N         -73.6874   26.8848  -78.3758 N.am      8 UNK        -0.4313 
     33 C         -73.6696   25.9753  -77.3922 C.2       8 UNK         0.5041 
     34 O         -73.6101   26.2531  -76.1909 O.2       8 UNK        -0.5577 
     35 CA        -73.7228   24.5042  -77.8186 C.3       7 UNK         0.0284 
     36 CB        -72.3310   24.0198  -78.2724 C.3       7 UNK        -0.1958 
     37 N         -74.1871   23.7326  -76.6704 N.am      7 UNK        -0.4454 
     38 C         -74.5757   22.4545  -76.6675 C.2       7 UNK         0.5089 
     39 O         -74.6301   21.7473  -77.6741 O.2       7 UNK        -0.5125 
     40 CA        -74.9498   21.8606  -75.3048 C.3       6 UNK         0.0408 
     41 CB        -73.7224   21.8016  -74.3715 C.3       6 UNK        -0.1791 
     42 N         -76.0489   22.6051  -74.6889 N.am      6 UNK        -0.4762 
     43 C         -76.8000   22.1511  -73.6753 C.2       6 UNK         0.5007 
     44 O         -76.6298   21.0574  -73.1333 O.2       6 UNK        -0.5032 
     45 CA        -77.9606   23.0536  -73.2073 C.3       5 UNK         0.0783 
     46 C46       -77.4543   24.2842  -72.4178 C.3       11 UNK        -0.0857 
     47 S47       -76.9714   23.8997  -70.7035 S.3       11 UNK        -0.2512 
     48 C48       -77.8796   25.1811  -69.7692 C.3       11 UNK         0.0225 
     49 N         -78.8165   23.4632  -74.3217 N.am      5 UNK        -0.4615 
     50 C         -79.5418   22.6466  -75.0968 C.2       4 UNK         0.5053 
     51 O         -79.6233   21.4297  -74.9306 O.2       4 UNK        -0.5105 
     52 CA        -80.3113   23.3008  -76.2552 C.3       4 UNK         0.0263 
     53 CB        -81.7126   23.7323  -75.7971 C.3       4 UNK        -0.1981 
     54 N         -79.5899   24.4505  -76.8088 N.am      4 UNK        -0.4224 
     55 C         -78.5650   24.3425  -77.6672 C.2       3 UNK         0.4895 
     56 O         -78.2023   23.2788  -78.1694 O.2       3 UNK        -0.5091 
     57 CA        -77.7967   25.6298  -78.0161 C.3       3 UNK         0.0250 
     58 CB        -78.4141   26.3164  -79.2441 C.3       3 UNK        -0.1996 
     59 N         -77.7180   26.5882  -76.9112 N.am      3 UNK        -0.4254 
     60 C         -77.0767   26.3677  -75.7542 C.2       2 UNK         0.5004 
     61 O         -76.4982   25.3173  -75.4813 O.2       2 UNK        -0.5226 
     62 CA        -77.1462   27.4884  -74.7028 C.3       2 UNK         0.0269 
     63 CB        -76.0928   28.5678  -74.9953 C.3       2 UNK        -0.1926 
     64 N         -78.4608   28.1275  -74.6124 N.am      2 UNK        -0.4687 
     65 C         -79.6211   27.4973  -74.3883 C.2       1 UNK         0.5165 
     66 O         -79.7267   26.2762  -74.2450 O.2       1 UNK        -0.5079 
     67 H67       -83.2407   26.1169  -77.5405 H         1 UNK         0.0900 
     68 H68       -83.9081   26.2294  -75.9109 H         1 UNK         0.0900 
     69 H69       -84.1284   27.5605  -77.0541 H         1 UNK         0.0900 
     70 H70       -82.7912   27.4984  -74.3158 H         1 UNK         0.2959 
     71 H71       -80.6822   29.2784  -74.9330 H         1 UNK         0.1079 
     72 H72       -82.2148   29.1666  -72.7879 H         1 UNK         0.0837 
     73 H73       -81.0501   28.0338  -72.1632 H         1 UNK         0.0837 
     74 H74       -80.4506   29.4735  -70.1519 H         1 UNK         0.0685 
     75 H75       -79.2668   30.7495  -70.2231 H         1 UNK         0.0685 
     76 H76       -79.6702   27.2073  -70.0259 H         1 UNK         0.1434 
     77 H77       -75.5037   26.3389  -70.5382 H         1 UNK         0.1329 
     78 H78       -77.0204   30.2516  -71.4334 H         1 UNK         0.1335 
     79 H79       -74.6515   28.8779  -72.5491 H         1 UNK         0.0680 
     80 H80       -73.9848   27.9485  -71.2439 H         1 UNK         0.0680 
     81 H81       -75.3319   31.2002  -72.4879 H         1 UNK         0.1032 
     82 H82       -75.0602   32.3690  -71.2380 H         1 UNK         0.1032 
     83 H83       -73.8651   32.8746  -73.3330 H         1 UNK         0.0461 
     84 H84       -70.4837   33.2970  -71.2713 H         1 UNK         0.3453 
     85 H85       -70.7665   31.9553  -72.3524 H         1 UNK         0.3453 
     86 H86       -72.6992   30.2052  -73.0558 H         1 UNK         0.2984 
     87 H87       -70.7842   30.4357  -75.9630 H         1 UNK         0.0554 
     88 H88       -70.5327   29.3432  -73.6714 H         1 UNK         0.0847 
     89 H89       -70.6612   28.1870  -74.9803 H         1 UNK         0.0847 
     90 H90       -72.0487   28.4802  -73.9476 H         1 UNK         0.0847 
     91 H91       -73.6054   29.8838  -76.1499 H         1 UNK         0.3141 
     92 H92       -74.5546   28.5992  -77.6146 H         1 UNK         0.0743 
     93 H93       -73.7426   30.1240  -79.4269 H         1 UNK         0.0784 
     94 H94       -72.8890   28.7846  -80.1798 H         1 UNK         0.0784 
     95 H95       -74.6509   28.7707  -80.0791 H         1 UNK         0.0784 
     96 H96       -73.6919   26.5632  -79.3328 H         1 UNK         0.3213 
     97 H97       -74.4425   24.3936  -78.6322 H         1 UNK         0.0855 
     98 H98       -71.5998   24.0935  -77.4662 H         1 UNK         0.0814 
     99 H99       -71.9582   24.6167  -79.1056 H         1 UNK         0.0814 
    100 H100      -72.3545   22.9833  -78.6084 H         1 UNK         0.0814 
    101 H101      -74.2334   24.2841  -75.8191 H         1 UNK         0.3105 
    102 H102      -75.2915   20.8390  -75.4850 H         1 UNK         0.0547 
    103 H103      -73.9318   21.2285  -73.4686 H         1 UNK         0.0837 
    104 H104      -73.3973   22.7964  -74.0654 H         1 UNK         0.0837 
    105 H105      -72.8783   21.3192  -74.8662 H         1 UNK         0.0837 
    106 H106      -76.2629   23.5200  -75.0879 H         1 UNK         0.3020 
    107 H107      -78.5886   22.4549  -72.5435 H         1 UNK         0.1245 
    108 H108      -78.2412   25.0386  -72.3861 H         1 UNK         0.0781 
    109 H109      -76.6088   24.7631  -72.9130 H         1 UNK         0.0781 
    110 H110      -77.6053   25.1075  -68.7162 H         1 UNK         0.0836 
    111 H111      -78.9447   24.9510  -69.8268 H         1 UNK         0.0836 
    112 H112      -78.8714   24.4606  -74.4966 H         1 UNK         0.3022 
    113 H113      -80.4328   22.5482  -77.0376 H         1 UNK         0.0747 
    114 H114      -82.3058   24.0879  -76.6382 H         1 UNK         0.0793 
    115 H115      -82.2538   22.8940  -75.3560 H         1 UNK         0.0793 
    116 H116      -81.6712   24.5232  -75.0476 H         1 UNK         0.0793 
    117 H117      -79.8088   25.3603  -76.4237 H         1 UNK         0.3047 
    118 H118      -76.7757   25.3368  -78.2681 H         1 UNK         0.0822 
    119 H119      -77.8198   27.1738  -79.5604 H         1 UNK         0.0807 
    120 H120      -79.4284   26.6649  -79.0439 H         1 UNK         0.0807 
    121 H121      -78.4660   25.6298  -80.0904 H         1 UNK         0.0807 
    122 H122      -78.2078   27.4638  -77.0298 H         1 UNK         0.2946 
    123 H123      -76.9300   27.0465  -73.7281 H         1 UNK         0.1144 
    124 H124      -76.1268   29.3667  -74.2553 H         1 UNK         0.0793 
    125 H125      -76.2443   29.0218  -75.9748 H         1 UNK         0.0793 
    126 H126      -75.0880   28.1441  -74.9762 H         1 UNK         0.0793 
    127 H127      -78.4730   29.1343  -74.6908 H         1 UNK         0.2896 
@<TRIPOS>BOND
     1    1    2 1    
     2    1   67 1    
     3    1   68 1    
     4    1   69 1    
     5    2    3 2    
     6    2    4 am   BACKBONE|DICT|INTERRES
     7    4    5 1    
     8    4   70 1    
     9    5    6 1    
    10    5   65 1    
    11    5   71 1    
    12    6    7 1    
    13    6   72 1    
    14    6   73 1    
    15    7    8 1    
    16    8    9 1    
    17    8   74 1    
    18    8   75 1    
    19    9   10 ar   
    20    9   14 ar   
    21   10   11 ar   
    22   10   76 1    
    23   11   12 ar   
    24   11   48 1    
    25   12   13 ar   
    26   12   77 1    
    27   13   14 ar   
    28   13   15 1    
    29   14   78 1    
    30   15   16 1    
    31   15   79 1    
    32   15   80 1    
    33   16   17 1    
    34   17   18 1    
    35   17   81 1    
    36   17   82 1    
    37   18   19 1    
    38   18   22 1    
    39   18   83 1    
    40   19   20 am   BACKBONE|DICT|INTERRES
    41   19   21 2    
    42   20   84 1    
    43   20   85 1    
    44   22   23 am   BACKBONE|DICT|INTERRES
    45   22   86 1    
    46   23   24 2    
    47   23   25 1    
    48   25   26 1    
    49   25   27 1    
    50   25   87 1    
    51   26   88 1    
    52   26   89 1    
    53   26   90 1    
    54   27   28 am   BACKBONE|DICT|INTERRES
    55   27   91 1    
    56   28   29 2    
    57   28   30 1    
    58   30   31 1    
    59   30   32 1    
    60   30   92 1    
    61   31   93 1    
    62   31   94 1    
    63   31   95 1    
    64   32   33 am   BACKBONE|DICT|INTERRES
    65   32   96 1    
    66   33   34 2    
    67   33   35 1    
    68   35   36 1    
    69   35   37 1    
    70   35   97 1    
    71   36   98 1    
    72   36   99 1    
    73   36  100 1    
    74   37   38 am   BACKBONE|DICT|INTERRES
    75   37  101 1    
    76   38   39 2    
    77   38   40 1    
    78   40   41 1    
    79   40   42 1    
    80   40  102 1    
    81   41  103 1    
    82   41  104 1    
    83   41  105 1    
    84   42   43 am   BACKBONE|DICT|INTERRES
    85   42  106 1    
    86   43   44 2    
    87   43   45 1    
    88   45   46 1    
    89   45   49 1    
    90   45  107 1    
    91   46   47 1    
    92   46  108 1    
    93   46  109 1    
    94   47   48 1    
    95   48  110 1    
    96   48  111 1    
    97   49   50 am   BACKBONE|DICT|INTERRES
    98   49  112 1    
    99   50   51 2    
   100   50   52 1    
   101   52   53 1    
   102   52   54 1    
   103   52  113 1    
   104   53  114 1    
   105   53  115 1    
   106   53  116 1    
   107   54   55 am   BACKBONE|DICT|INTERRES
   108   54  117 1    
   109   55   56 2    
   110   55   57 1    
   111   57   58 1    
   112   57   59 1    
   113   57  118 1    
   114   58  119 1    
   115   58  120 1    
   116   58  121 1    
   117   59   60 am   BACKBONE|DICT|INTERRES
   118   59  122 1    
   119   60   61 2    
   120   60   62 1    
   121   62   63 1    
   122   62   64 1    
   123   62  123 1    
   124   63  124 1    
   125   63  125 1    
   126   63  126 1    
   127   64   65 am   BACKBONE|DICT|INTERRES
   128   64  127 1    
   129   65   66 2    
@<TRIPOS>SUBSTRUCTURE
     1 UNK         1 GROUP             0       ****    0 ROOT    
