@<TRIPOS>MOLECULE
3R135
127   129    1
SMALL
USER_CHARGES


@<TRIPOS>ATOM
      1 CA        -81.0804   22.7565  -71.5481 C.3       0 UNK        -0.1998 
      2 C         -81.4862   24.1535  -71.9940 C.2       0 UNK         0.4909 
      3 O         -82.5620   24.3260  -72.5677 O.2       0 UNK        -0.5240 
      4 N         -80.6346   25.1507  -71.7312 N.am      1 UNK        -0.4739 
      5 CA        -80.8466   26.5480  -72.1186 C.3       1 UNK         0.0864 
      6 C6        -79.9687   27.5195  -71.2952 C.3       11 UNK        -0.0881 
      7 S7        -80.0321   27.2840  -69.4830 S.3       11 UNK        -0.2682 
      8 C8        -79.0387   28.6915  -68.8614 C.3       11 UNK         0.0289 
      9 C9        -77.9124   29.0810  -69.8106 C.ar      11 UNK        -0.0687 
     10 C10       -76.8053   28.2439  -69.9773 C.ar      11 UNK        -0.0823 
     11 C11       -75.8424   28.5276  -70.9522 C.ar      11 UNK        -0.0830 
     12 C12       -75.9593   29.6955  -71.7121 C.ar      11 UNK        -0.1021 
     13 C13       -77.0561   30.5459  -71.5466 C.ar      11 UNK        -0.0753 
     14 C14       -78.0269   30.2347  -70.5914 C.ar      11 UNK        -0.0933 
     15 C15       -77.2142   31.7871  -72.4127 C.3       11 UNK         0.0166 
     16 S16       -77.7504   31.3667  -74.1052 S.3       11 UNK        -0.2615 
     17 C17       -76.1525   31.1095  -74.9505 C.3       11 UNK        -0.0865 
     18 CA        -75.8806   29.6243  -75.3330 C.3       10 UNK         0.0862 
     19 C         -76.5081   29.2742  -76.7125 C.2       10 UNK         0.5551 
     20 N         -75.8353   29.5576  -77.8178 N.am      10 UNK        -0.7319 
     21 O         -77.6089   28.7334  -76.7777 O.2       10 UNK        -0.5018 
     22 N         -74.4578   29.2603  -75.1605 N.am      10 UNK        -0.4509 
     23 C         -73.4004   29.8502  -75.7365 C.2       10 UNK         0.4899 
     24 O         -73.4933   30.6959  -76.6262 O.2       10 UNK        -0.4839 
     25 CA        -72.0034   29.5063  -75.1965 C.3       9 UNK         0.0222 
     26 CB        -71.6585   30.4991  -74.0639 C.3       9 UNK        -0.1966 
     27 N         -71.8537   28.1168  -74.7404 N.am      9 UNK        -0.4218 
     28 C         -70.6778   27.5556  -74.4110 C.2       9 UNK         0.5020 
     29 O         -69.5934   28.1347  -74.4923 O.2       9 UNK        -0.5274 
     30 CA        -70.6970   26.1027  -73.9136 C.3       8 UNK         0.0270 
     31 CB        -71.3708   25.9884  -72.5361 C.3       8 UNK        -0.1976 
     32 N         -71.3766   25.2381  -74.8735 N.am      8 UNK        -0.4313 
     33 C         -70.7616   24.5086  -75.8156 C.2       8 UNK         0.5041 
     34 O         -69.5384   24.4015  -75.9142 O.2       8 UNK        -0.5577 
     35 CA        -71.6590   23.7765  -76.8331 C.3       7 UNK         0.0284 
     36 CB        -71.9025   22.3246  -76.3906 C.3       7 UNK        -0.1958 
     37 N         -72.9481   24.4401  -77.0393 N.am      7 UNK        -0.4454 
     38 C         -73.1005   25.6574  -77.5797 C.2       7 UNK         0.5089 
     39 O         -72.1843   26.2998  -78.0922 O.2       7 UNK        -0.5125 
     40 CA        -74.4988   26.2893  -77.4893 C.3       6 UNK         0.0408 
     41 CB        -75.2247   26.1806  -78.8370 C.3       6 UNK        -0.1791 
     42 N         -75.3453   25.7364  -76.4226 N.am      6 UNK        -0.4762 
     43 C         -75.0898   25.8124  -75.1060 C.2       6 UNK         0.5007 
     44 O         -74.0974   26.3922  -74.6592 O.2       6 UNK        -0.5032 
     45 CA        -76.0727   25.1294  -74.1274 C.3       5 UNK         0.0783 
     46 C46       -76.4296   26.0327  -72.9166 C.3       11 UNK        -0.0857 
     47 S47       -75.2670   25.8472  -71.5187 S.3       11 UNK        -0.2512 
     48 C48       -74.6973   27.5582  -71.2217 C.3       11 UNK         0.0225 
     49 N         -77.2813   24.6310  -74.7946 N.am      5 UNK        -0.4615 
     50 C         -77.3795   23.4644  -75.4457 C.2       4 UNK         0.5053 
     51 O         -76.4459   22.6721  -75.5685 O.2       4 UNK        -0.5105 
     52 CA        -78.7325   23.1553  -76.1063 C.3       4 UNK         0.0263 
     53 CB        -79.7478   22.6580  -75.0681 C.3       4 UNK        -0.1981 
     54 N         -79.2764   24.3204  -76.8083 N.am      4 UNK        -0.4224 
     55 C         -78.8024   24.7925  -77.9685 C.2       3 UNK         0.4895 
     56 O         -77.8945   24.2468  -78.5943 O.2       3 UNK        -0.5091 
     57 CA        -79.3965   26.0998  -78.5245 C.3       3 UNK         0.0250 
     58 CB        -80.5145   25.8213  -79.5487 C.3       3 UNK        -0.1996 
     59 N         -79.8085   27.0638  -77.4949 N.am      3 UNK        -0.4254 
     60 C         -80.8579   27.0101  -76.6649 C.2       2 UNK         0.5004 
     61 O         -81.7012   26.1109  -76.6657 O.2       2 UNK        -0.5226 
     62 CA        -80.9587   28.1444  -75.6298 C.3       2 UNK         0.0269 
     63 CB        -82.0387   29.1565  -76.0438 C.3       2 UNK        -0.1926 
     64 N         -81.2352   27.6702  -74.2685 N.am      2 UNK        -0.4687 
     65 C         -80.5172   26.7483  -73.6112 C.2       1 UNK         0.5165 
     66 O         -79.5677   26.1347  -74.1077 O.2       1 UNK        -0.5079 
     67 H67       -81.1684   22.0555  -72.3776 H         1 UNK         0.0900 
     68 H68       -81.7325   22.4159  -70.7444 H         1 UNK         0.0900 
     69 H69       -80.0519   22.7270  -71.1887 H         1 UNK         0.0900 
     70 H70       -79.7617   24.9586  -71.2621 H         1 UNK         0.2959 
     71 H71       -81.8965   26.7975  -71.9490 H         1 UNK         0.1079 
     72 H72       -80.2498   28.5516  -71.5147 H         1 UNK         0.0837 
     73 H73       -78.9266   27.4153  -71.6027 H         1 UNK         0.0837 
     74 H74       -79.7045   29.5395  -68.6932 H         1 UNK         0.0685 
     75 H75       -78.6234   28.4323  -67.8866 H         1 UNK         0.0685 
     76 H76       -76.7303   27.3356  -69.3949 H         1 UNK         0.1434 
     77 H77       -75.2120   29.9300  -72.4558 H         1 UNK         0.1329 
     78 H78       -78.8916   30.8744  -70.4788 H         1 UNK         0.1335 
     79 H79       -76.2845   32.3571  -72.4281 H         1 UNK         0.0680 
     80 H80       -77.9606   32.4535  -71.9774 H         1 UNK         0.0680 
     81 H81       -75.3589   31.4843  -74.3038 H         1 UNK         0.1032 
     82 H82       -76.1127   31.7576  -75.8285 H         1 UNK         0.1032 
     83 H83       -76.3957   28.9949  -74.6068 H         1 UNK         0.0461 
     84 H84       -74.9355   30.0179  -77.7376 H         1 UNK         0.3453 
     85 H85       -76.2301   29.3494  -78.7198 H         1 UNK         0.3453 
     86 H86       -74.2931   28.5082  -74.5066 H         1 UNK         0.2984 
     87 H87       -71.3027   29.6610  -76.0197 H         1 UNK         0.0554 
     88 H88       -70.6103   30.4402  -73.7727 H         1 UNK         0.0847 
     89 H89       -72.2627   30.3184  -73.1741 H         1 UNK         0.0847 
     90 H90       -71.8374   31.5297  -74.3747 H         1 UNK         0.0847 
     91 H91       -72.6918   27.5403  -74.7086 H         1 UNK         0.3141 
     92 H92       -69.6601   25.7806  -73.7946 H         1 UNK         0.0743 
     93 H93       -71.2823   24.9774  -72.1384 H         1 UNK         0.0784 
     94 H94       -70.9062   26.6623  -71.8151 H         1 UNK         0.0784 
     95 H95       -72.4303   26.2337  -72.5782 H         1 UNK         0.0784 
     96 H96       -72.3873   25.3023  -74.8918 H         1 UNK         0.3213 
     97 H97       -71.1300   23.7626  -77.7886 H         1 UNK         0.0855 
     98 H98       -72.4457   22.2744  -75.4460 H         1 UNK         0.0814 
     99 H99       -70.9580   21.7965  -76.2516 H         1 UNK         0.0814 
    100 H100      -72.4734   21.7718  -77.1370 H         1 UNK         0.0814 
    101 H101      -73.7680   23.9770  -76.6733 H         1 UNK         0.3105 
    102 H102      -74.3426   27.3451  -77.2725 H         1 UNK         0.0547 
    103 H103      -75.4028   25.1420  -79.1174 H         1 UNK         0.0837 
    104 H104      -76.1844   26.6950  -78.8119 H         1 UNK         0.0837 
    105 H105      -74.6369   26.6369  -79.6346 H         1 UNK         0.0837 
    106 H106      -76.1732   25.2370  -76.7162 H         1 UNK         0.3020 
    107 H107      -75.5402   24.2561  -73.7433 H         1 UNK         0.1245 
    108 H108      -76.5324   27.0780  -73.2099 H         1 UNK         0.0781 
    109 H109      -77.4043   25.7501  -72.5170 H         1 UNK         0.0781 
    110 H110      -74.0198   27.5623  -70.3670 H         1 UNK         0.0836 
    111 H111      -74.1107   27.8834  -72.0818 H         1 UNK         0.0836 
    112 H112      -78.1126   25.2148  -74.7061 H         1 UNK         0.3022 
    113 H113      -78.5747   22.3561  -76.8340 H         1 UNK         0.0747 
    114 H114      -80.6866   22.3653  -75.5386 H         1 UNK         0.0793 
    115 H115      -79.3667   21.7881  -74.5314 H         1 UNK         0.0793 
    116 H116      -79.9695   23.4280  -74.3309 H         1 UNK         0.0793 
    117 H117      -80.0364   24.8237  -76.3636 H         1 UNK         0.3047 
    118 H118      -78.5882   26.5956  -79.0636 H         1 UNK         0.0822 
    119 H119      -80.9087   26.7469  -79.9682 H         1 UNK         0.0807 
    120 H120      -81.3460   25.2688  -79.1106 H         1 UNK         0.0807 
    121 H121      -80.1362   25.2240  -80.3793 H         1 UNK         0.0807 
    122 H122      -79.1274   27.8045  -77.3312 H         1 UNK         0.2946 
    123 H123      -79.9997   28.6659  -75.5908 H         1 UNK         0.1144 
    124 H124      -82.0654   30.0105  -75.3667 H         1 UNK         0.0793 
    125 H125      -83.0309   28.7033  -76.0561 H         1 UNK         0.0793 
    126 H126      -81.8456   29.5455  -77.0447 H         1 UNK         0.0793 
    127 H127      -82.0024   28.1192  -73.7901 H         1 UNK         0.2896 
@<TRIPOS>BOND
     1    1    2 1    
     2    1   67 1    
     3    1   68 1    
     4    1   69 1    
     5    2    3 2    
     6    2    4 am   BACKBONE|DICT|INTERRES
     7    4    5 1    
     8    4   70 1    
     9    5    6 1    
    10    5   65 1    
    11    5   71 1    
    12    6    7 1    
    13    6   72 1    
    14    6   73 1    
    15    7    8 1    
    16    8    9 1    
    17    8   74 1    
    18    8   75 1    
    19    9   10 ar   
    20    9   14 ar   
    21   10   11 ar   
    22   10   76 1    
    23   11   12 ar   
    24   11   48 1    
    25   12   13 ar   
    26   12   77 1    
    27   13   14 ar   
    28   13   15 1    
    29   14   78 1    
    30   15   16 1    
    31   15   79 1    
    32   15   80 1    
    33   16   17 1    
    34   17   18 1    
    35   17   81 1    
    36   17   82 1    
    37   18   19 1    
    38   18   22 1    
    39   18   83 1    
    40   19   20 am   BACKBONE|DICT|INTERRES
    41   19   21 2    
    42   20   84 1    
    43   20   85 1    
    44   22   23 am   BACKBONE|DICT|INTERRES
    45   22   86 1    
    46   23   24 2    
    47   23   25 1    
    48   25   26 1    
    49   25   27 1    
    50   25   87 1    
    51   26   88 1    
    52   26   89 1    
    53   26   90 1    
    54   27   28 am   BACKBONE|DICT|INTERRES
    55   27   91 1    
    56   28   29 2    
    57   28   30 1    
    58   30   31 1    
    59   30   32 1    
    60   30   92 1    
    61   31   93 1    
    62   31   94 1    
    63   31   95 1    
    64   32   33 am   BACKBONE|DICT|INTERRES
    65   32   96 1    
    66   33   34 2    
    67   33   35 1    
    68   35   36 1    
    69   35   37 1    
    70   35   97 1    
    71   36   98 1    
    72   36   99 1    
    73   36  100 1    
    74   37   38 am   BACKBONE|DICT|INTERRES
    75   37  101 1    
    76   38   39 2    
    77   38   40 1    
    78   40   41 1    
    79   40   42 1    
    80   40  102 1    
    81   41  103 1    
    82   41  104 1    
    83   41  105 1    
    84   42   43 am   BACKBONE|DICT|INTERRES
    85   42  106 1    
    86   43   44 2    
    87   43   45 1    
    88   45   46 1    
    89   45   49 1    
    90   45  107 1    
    91   46   47 1    
    92   46  108 1    
    93   46  109 1    
    94   47   48 1    
    95   48  110 1    
    96   48  111 1    
    97   49   50 am   BACKBONE|DICT|INTERRES
    98   49  112 1    
    99   50   51 2    
   100   50   52 1    
   101   52   53 1    
   102   52   54 1    
   103   52  113 1    
   104   53  114 1    
   105   53  115 1    
   106   53  116 1    
   107   54   55 am   BACKBONE|DICT|INTERRES
   108   54  117 1    
   109   55   56 2    
   110   55   57 1    
   111   57   58 1    
   112   57   59 1    
   113   57  118 1    
   114   58  119 1    
   115   58  120 1    
   116   58  121 1    
   117   59   60 am   BACKBONE|DICT|INTERRES
   118   59  122 1    
   119   60   61 2    
   120   60   62 1    
   121   62   63 1    
   122   62   64 1    
   123   62  123 1    
   124   63  124 1    
   125   63  125 1    
   126   63  126 1    
   127   64   65 am   BACKBONE|DICT|INTERRES
   128   64  127 1    
   129   65   66 2    
@<TRIPOS>SUBSTRUCTURE
     1 UNK         1 GROUP             0       ****    0 ROOT    
