@<TRIPOS>MOLECULE
3R135
127   129    1
SMALL
USER_CHARGES


@<TRIPOS>ATOM
      1 CA        -82.5433   22.2060  -72.6591 C.3       0 UNK        -0.1998 
      2 C         -81.7320   23.4918  -72.6936 C.2       0 UNK         0.4909 
      3 O         -80.5466   23.4548  -73.0211 O.2       0 UNK        -0.5240 
      4 N         -82.3669   24.6287  -72.3741 N.am      1 UNK        -0.4739 
      5 CA        -81.7706   25.9716  -72.3219 C.3       1 UNK         0.0864 
      6 C6        -80.7827   26.1302  -71.1329 C.3       11 UNK        -0.0881 
      7 S7        -80.8008   27.8180  -70.4474 S.3       11 UNK        -0.2682 
      8 C8        -79.0599   28.0355  -69.9433 C.3       11 UNK         0.0289 
      9 C9        -78.1204   28.4871  -71.0607 C.ar      11 UNK        -0.0687 
     10 C10       -78.5268   29.4165  -72.0269 C.ar      11 UNK        -0.0823 
     11 C11       -77.6309   29.8882  -72.9919 C.ar      11 UNK        -0.0830 
     12 C12       -76.3074   29.4392  -72.9689 C.ar      11 UNK        -0.1021 
     13 C13       -75.8881   28.5025  -72.0212 C.ar      11 UNK        -0.0753 
     14 C14       -76.7998   28.0256  -71.0751 C.ar      11 UNK        -0.0933 
     15 C15       -74.4462   28.0146  -72.0222 C.3       11 UNK         0.0166 
     16 S16       -73.4845   28.6598  -70.6130 S.3       11 UNK        -0.2615 
     17 C17       -73.5593   30.4721  -70.8599 C.3       11 UNK        -0.0865 
     18 CA        -72.2749   31.1586  -71.4112 C.3       10 UNK         0.0862 
     19 C         -71.0377   31.0859  -70.4615 C.2       10 UNK         0.5551 
     20 N         -69.8120   31.1053  -70.9696 N.am      10 UNK        -0.7319 
     21 O         -71.1868   31.0703  -69.2417 O.2       10 UNK        -0.5018 
     22 N         -72.0506   30.9153  -72.8508 N.am      10 UNK        -0.4509 
     23 C         -71.4764   29.8545  -73.4331 C.2       10 UNK         0.4899 
     24 O         -70.9889   28.8982  -72.8277 O.2       10 UNK        -0.4839 
     25 CA        -71.3855   29.9110  -74.9685 C.3       9 UNK         0.0222 
     26 CB        -70.2095   30.8009  -75.4066 C.3       9 UNK        -0.1966 
     27 N         -71.2011   28.5733  -75.5320 N.am      9 UNK        -0.4218 
     28 C         -72.1804   27.6760  -75.6945 C.2       9 UNK         0.5020 
     29 O         -73.3739   27.9219  -75.5197 O.2       9 UNK        -0.5274 
     30 CA        -71.7245   26.2637  -76.0790 C.3       8 UNK         0.0270 
     31 CB        -71.1580   25.5255  -74.8501 C.3       8 UNK        -0.1976 
     32 N         -72.8252   25.4829  -76.6446 N.am      8 UNK        -0.4313 
     33 C         -72.6601   24.4779  -77.5147 C.2       8 UNK         0.5041 
     34 O         -71.5664   24.1582  -77.9854 O.2       8 UNK        -0.5577 
     35 CA        -73.8998   23.6639  -77.9202 C.3       7 UNK         0.0284 
     36 CB        -74.2206   22.6038  -76.8540 C.3       7 UNK        -0.1958 
     37 N         -75.0858   24.4799  -78.1785 N.am      7 UNK        -0.4454 
     38 C         -75.2469   25.2714  -79.2478 C.2       7 UNK         0.5089 
     39 O         -74.4014   25.4127  -80.1321 O.2       7 UNK        -0.5125 
     40 CA        -76.5835   26.0261  -79.3587 C.3       6 UNK         0.0408 
     41 CB        -77.6598   25.1365  -80.0002 C.3       6 UNK        -0.1791 
     42 N         -77.0563   26.5118  -78.0623 N.am      6 UNK        -0.4762 
     43 C         -76.4868   27.5175  -77.3833 C.2       6 UNK         0.5007 
     44 O         -75.5796   28.2123  -77.8424 O.2       6 UNK        -0.5032 
     45 CA        -77.0073   27.7829  -75.9549 C.3       5 UNK         0.0783 
     46 C46       -78.1731   28.8086  -75.9504 C.3       11 UNK        -0.0857 
     47 S47       -77.5680   30.5158  -75.7404 S.3       11 UNK        -0.2512 
     48 C48       -78.1005   30.9012  -74.0344 C.3       11 UNK         0.0225 
     49 N         -77.3587   26.5559  -75.2319 N.am      5 UNK        -0.4615 
     50 C         -76.4945   25.5841  -74.9045 C.2       4 UNK         0.5053 
     51 O         -75.2951   25.6045  -75.1703 O.2       4 UNK        -0.5105 
     52 CA        -77.0772   24.3447  -74.2093 C.3       4 UNK         0.0263 
     53 CB        -77.2807   24.6168  -72.7119 C.3       4 UNK        -0.1981 
     54 N         -78.3327   23.9076  -74.8251 N.am      4 UNK        -0.4224 
     55 C         -78.4380   23.4863  -76.0952 C.2       3 UNK         0.4895 
     56 O         -77.4778   23.3454  -76.8520 O.2       3 UNK        -0.5091 
     57 CA        -79.8547   23.2430  -76.6364 C.3       3 UNK         0.0250 
     58 CB        -80.3991   21.8791  -76.1829 C.3       3 UNK        -0.1996 
     59 N         -80.7772   24.3144  -76.2537 N.am      3 UNK        -0.4254 
     60 C         -80.6933   25.5755  -76.7044 C.2       2 UNK         0.5004 
     61 O         -79.8633   25.9521  -77.5301 O.2       2 UNK        -0.5226 
     62 CA        -81.6796   26.5995  -76.1186 C.3       2 UNK         0.0269 
     63 CB        -82.9519   26.6746  -76.9771 C.3       2 UNK        -0.1926 
     64 N         -82.0441   26.3225  -74.7262 N.am      2 UNK        -0.4687 
     65 C         -81.1901   26.3862  -73.6937 C.2       1 UNK         0.5165 
     66 O         -80.0025   26.6886  -73.8199 O.2       1 UNK        -0.5079 
     67 H67       -83.5547   22.3712  -72.2885 H         1 UNK         0.0900 
     68 H68       -82.6127   21.7780  -73.6586 H         1 UNK         0.0900 
     69 H69       -82.0597   21.4772  -72.0093 H         1 UNK         0.0900 
     70 H70       -83.3468   24.5857  -72.1286 H         1 UNK         0.2959 
     71 H71       -82.6127   26.6434  -72.1456 H         1 UNK         0.1079 
     72 H72       -79.7709   25.8304  -71.4017 H         1 UNK         0.0837 
     73 H73       -81.0710   25.4661  -70.3167 H         1 UNK         0.0837 
     74 H74       -79.0271   28.7894  -69.1559 H         1 UNK         0.0685 
     75 H75       -78.7050   27.1078  -69.4913 H         1 UNK         0.0685 
     76 H76       -79.5428   29.7852  -72.0200 H         1 UNK         0.1434 
     77 H77       -75.6014   29.8143  -73.6973 H         1 UNK         0.1329 
     78 H78       -76.4671   27.3158  -70.3302 H         1 UNK         0.1335 
     79 H79       -73.9470   28.2924  -72.9502 H         1 UNK         0.0680 
     80 H80       -74.4363   26.9243  -71.9901 H         1 UNK         0.0680 
     81 H81       -73.8162   30.9120  -69.8947 H         1 UNK         0.1032 
     82 H82       -74.4001   30.7246  -71.5037 H         1 UNK         0.1032 
     83 H83       -72.5062   32.2243  -71.3916 H         1 UNK         0.0461 
     84 H84       -69.6766   31.1053  -71.9673 H         1 UNK         0.3453 
     85 H85       -69.0183   31.0768  -70.3494 H         1 UNK         0.3453 
     86 H86       -72.3709   31.6594  -73.4540 H         1 UNK         0.2984 
     87 H87       -72.3124   30.3361  -75.3603 H         1 UNK         0.0554 
     88 H88       -70.3294   31.8219  -75.0420 H         1 UNK         0.0847 
     89 H89       -70.1375   30.8561  -76.4931 H         1 UNK         0.0847 
     90 H90       -69.2567   30.4299  -75.0262 H         1 UNK         0.0847 
     91 H91       -70.2459   28.2674  -75.6489 H         1 UNK         0.3141 
     92 H92       -70.9379   26.3698  -76.8295 H         1 UNK         0.0743 
     93 H93       -71.9228   25.3846  -74.0848 H         1 UNK         0.0784 
     94 H94       -70.7682   24.5436  -75.1189 H         1 UNK         0.0784 
     95 H95       -70.3395   26.0828  -74.3926 H         1 UNK         0.0784 
     96 H96       -73.7520   25.7024  -76.2767 H         1 UNK         0.3213 
     97 H97       -73.6550   23.1376  -78.8455 H         1 UNK         0.0855 
     98 H98       -74.4965   23.0588  -75.9026 H         1 UNK         0.0814 
     99 H99       -73.3582   21.9617  -76.6702 H         1 UNK         0.0814 
    100 H100      -75.0426   21.9605  -77.1683 H         1 UNK         0.0814 
    101 H101      -75.8585   24.3822  -77.5272 H         1 UNK         0.3105 
    102 H102      -76.4287   26.8884  -80.0107 H         1 UNK         0.0547 
    103 H103      -77.3406   24.7843  -80.9818 H         1 UNK         0.0837 
    104 H104      -77.8749   24.2575  -79.3921 H         1 UNK         0.0837 
    105 H105      -78.5935   25.6819  -80.1384 H         1 UNK         0.0837 
    106 H106      -77.8664   26.0474  -77.6619 H         1 UNK         0.3020 
    107 H107      -76.1585   28.2009  -75.4105 H         1 UNK         0.1245 
    108 H108      -78.8701   28.5998  -75.1391 H         1 UNK         0.0781 
    109 H109      -78.7740   28.7487  -76.8603 H         1 UNK         0.0781 
    110 H110      -79.1888   30.9803  -74.0275 H         1 UNK         0.0836 
    111 H111      -77.7194   31.8861  -73.7618 H         1 UNK         0.0836 
    112 H112      -78.3197   26.4749  -74.9141 H         1 UNK         0.3022 
    113 H113      -76.3604   23.5276  -74.3119 H         1 UNK         0.0747 
    114 H114      -77.7568   23.7748  -72.2092 H         1 UNK         0.0793 
    115 H115      -76.3248   24.7976  -72.2187 H         1 UNK         0.0793 
    116 H116      -77.8951   25.5014  -72.5505 H         1 UNK         0.0793 
    117 H117      -79.1691   23.9507  -74.2465 H         1 UNK         0.3047 
    118 H118      -79.7933   23.2328  -77.7270 H         1 UNK         0.0822 
    119 H119      -81.3936   21.6924  -76.5884 H         1 UNK         0.0807 
    120 H120      -80.4571   21.8009  -75.0976 H         1 UNK         0.0807 
    121 H121      -79.7523   21.0719  -76.5292 H         1 UNK         0.0807 
    122 H122      -81.4676   24.0999  -75.5499 H         1 UNK         0.2946 
    123 H123      -81.1875   27.5744  -76.1491 H         1 UNK         0.1144 
    124 H124      -82.7075   26.9013  -78.0160 H         1 UNK         0.0793 
    125 H125      -83.6222   27.4593  -76.6258 H         1 UNK         0.0793 
    126 H126      -83.5022   25.7329  -76.9699 H         1 UNK         0.0793 
    127 H127      -82.9986   26.0431  -74.5496 H         1 UNK         0.2896 
@<TRIPOS>BOND
     1    1    2 1    
     2    1   67 1    
     3    1   68 1    
     4    1   69 1    
     5    2    3 2    
     6    2    4 am   BACKBONE|DICT|INTERRES
     7    4    5 1    
     8    4   70 1    
     9    5    6 1    
    10    5   65 1    
    11    5   71 1    
    12    6    7 1    
    13    6   72 1    
    14    6   73 1    
    15    7    8 1    
    16    8    9 1    
    17    8   74 1    
    18    8   75 1    
    19    9   10 ar   
    20    9   14 ar   
    21   10   11 ar   
    22   10   76 1    
    23   11   12 ar   
    24   11   48 1    
    25   12   13 ar   
    26   12   77 1    
    27   13   14 ar   
    28   13   15 1    
    29   14   78 1    
    30   15   16 1    
    31   15   79 1    
    32   15   80 1    
    33   16   17 1    
    34   17   18 1    
    35   17   81 1    
    36   17   82 1    
    37   18   19 1    
    38   18   22 1    
    39   18   83 1    
    40   19   20 am   BACKBONE|DICT|INTERRES
    41   19   21 2    
    42   20   84 1    
    43   20   85 1    
    44   22   23 am   BACKBONE|DICT|INTERRES
    45   22   86 1    
    46   23   24 2    
    47   23   25 1    
    48   25   26 1    
    49   25   27 1    
    50   25   87 1    
    51   26   88 1    
    52   26   89 1    
    53   26   90 1    
    54   27   28 am   BACKBONE|DICT|INTERRES
    55   27   91 1    
    56   28   29 2    
    57   28   30 1    
    58   30   31 1    
    59   30   32 1    
    60   30   92 1    
    61   31   93 1    
    62   31   94 1    
    63   31   95 1    
    64   32   33 am   BACKBONE|DICT|INTERRES
    65   32   96 1    
    66   33   34 2    
    67   33   35 1    
    68   35   36 1    
    69   35   37 1    
    70   35   97 1    
    71   36   98 1    
    72   36   99 1    
    73   36  100 1    
    74   37   38 am   BACKBONE|DICT|INTERRES
    75   37  101 1    
    76   38   39 2    
    77   38   40 1    
    78   40   41 1    
    79   40   42 1    
    80   40  102 1    
    81   41  103 1    
    82   41  104 1    
    83   41  105 1    
    84   42   43 am   BACKBONE|DICT|INTERRES
    85   42  106 1    
    86   43   44 2    
    87   43   45 1    
    88   45   46 1    
    89   45   49 1    
    90   45  107 1    
    91   46   47 1    
    92   46  108 1    
    93   46  109 1    
    94   47   48 1    
    95   48  110 1    
    96   48  111 1    
    97   49   50 am   BACKBONE|DICT|INTERRES
    98   49  112 1    
    99   50   51 2    
   100   50   52 1    
   101   52   53 1    
   102   52   54 1    
   103   52  113 1    
   104   53  114 1    
   105   53  115 1    
   106   53  116 1    
   107   54   55 am   BACKBONE|DICT|INTERRES
   108   54  117 1    
   109   55   56 2    
   110   55   57 1    
   111   57   58 1    
   112   57   59 1    
   113   57  118 1    
   114   58  119 1    
   115   58  120 1    
   116   58  121 1    
   117   59   60 am   BACKBONE|DICT|INTERRES
   118   59  122 1    
   119   60   61 2    
   120   60   62 1    
   121   62   63 1    
   122   62   64 1    
   123   62  123 1    
   124   63  124 1    
   125   63  125 1    
   126   63  126 1    
   127   64   65 am   BACKBONE|DICT|INTERRES
   128   64  127 1    
   129   65   66 2    
@<TRIPOS>SUBSTRUCTURE
     1 UNK         1 GROUP             0       ****    0 ROOT    
