@<TRIPOS>MOLECULE
3R135
127   129    1
SMALL
USER_CHARGES


@<TRIPOS>ATOM
      1 CA        -76.0363   22.3856  -73.8073 C.3       0 UNK        -0.1998 
      2 C         -77.1832   22.7003  -72.8605 C.2       0 UNK         0.4909 
      3 O         -77.5679   21.8504  -72.0575 O.2       0 UNK        -0.5240 
      4 N         -77.7379   23.9158  -72.9444 N.am      1 UNK        -0.4739 
      5 CA        -78.7452   24.4555  -72.0180 C.3       1 UNK         0.0864 
      6 C6        -78.5868   25.9918  -71.8752 C.3       11 UNK        -0.0881 
      7 S7        -78.9016   26.5846  -70.1775 S.3       11 UNK        -0.2682 
      8 C8        -79.5913   28.2488  -70.4736 C.3       11 UNK         0.0289 
      9 C9        -78.8310   29.0246  -71.5437 C.ar      11 UNK        -0.0687 
     10 C10       -79.5029   29.4825  -72.6799 C.ar      11 UNK        -0.0823 
     11 C11       -78.8119   30.1460  -73.6967 C.ar      11 UNK        -0.0830 
     12 C12       -77.4325   30.3457  -73.5759 C.ar      11 UNK        -0.1021 
     13 C13       -76.7503   29.8977  -72.4398 C.ar      11 UNK        -0.0753 
     14 C14       -77.4569   29.2527  -71.4207 C.ar      11 UNK        -0.0933 
     15 C15       -75.2457   30.0774  -72.3239 C.3       11 UNK         0.0166 
     16 S16       -74.8099   31.7658  -71.8178 S.3       11 UNK        -0.2615 
     17 C17       -73.0630   31.5560  -71.3301 C.3       11 UNK        -0.0865 
     18 CA        -72.0862   31.7251  -72.5215 C.3       10 UNK         0.0862 
     19 C         -70.6403   31.9932  -72.0236 C.2       10 UNK         0.5551 
     20 N         -70.2753   33.2539  -71.8362 N.am      10 UNK        -0.7319 
     21 O         -69.8645   31.0743  -71.7668 O.2       10 UNK        -0.5018 
     22 N         -72.1319   30.5619  -73.4174 N.am      10 UNK        -0.4509 
     23 C         -71.7635   30.5742  -74.7008 C.2       10 UNK         0.4899 
     24 O         -71.4425   31.5994  -75.3034 O.2       10 UNK        -0.4839 
     25 CA        -71.7498   29.2379  -75.4670 C.3       9 UNK         0.0222 
     26 CB        -70.3119   28.7013  -75.6038 C.3       9 UNK        -0.1966 
     27 N         -72.6545   28.1862  -74.9784 N.am      9 UNK        -0.4218 
     28 C         -72.6141   27.4766  -73.8411 C.2       9 UNK         0.5020 
     29 O         -71.8700   27.7361  -72.8955 O.2       9 UNK        -0.5274 
     30 CA        -73.5532   26.2578  -73.7468 C.3       8 UNK         0.0270 
     31 CB        -74.9039   26.6312  -73.1241 C.3       8 UNK        -0.1976 
     32 N         -73.7813   25.6113  -75.0424 N.am      8 UNK        -0.4313 
     33 C         -72.8576   24.8960  -75.7017 C.2       8 UNK         0.5041 
     34 O         -71.7438   24.6283  -75.2495 O.2       8 UNK        -0.5577 
     35 CA        -73.2302   24.4126  -77.1121 C.3       7 UNK         0.0284 
     36 CB        -73.9776   23.0718  -77.0552 C.3       7 UNK        -0.1958 
     37 N         -74.0357   25.4018  -77.8313 N.am      7 UNK        -0.4454 
     38 C         -73.5324   26.5098  -78.3943 C.2       7 UNK         0.5089 
     39 O         -72.3317   26.7781  -78.4292 O.2       7 UNK        -0.5125 
     40 CA        -74.5388   27.4976  -79.0101 C.3       6 UNK         0.0408 
     41 CB        -74.7672   27.1751  -80.4951 C.3       6 UNK        -0.1791 
     42 N         -75.8291   27.5312  -78.3148 N.am      6 UNK        -0.4762 
     43 C         -76.0100   27.9655  -77.0581 C.2       6 UNK         0.5007 
     44 O         -75.0985   28.3694  -76.3388 O.2       6 UNK        -0.5032 
     45 CA        -77.4450   27.9054  -76.5012 C.3       5 UNK         0.0783 
     46 C46       -78.2101   29.1861  -76.9103 C.3       11 UNK        -0.0857 
     47 S47       -79.8494   29.3108  -76.1253 S.3       11 UNK        -0.2512 
     48 C48       -79.5702   30.6444  -74.9174 C.3       11 UNK         0.0225 
     49 N         -78.1444   26.6831  -76.9161 N.am      5 UNK        -0.4615 
     50 C         -77.7529   25.4319  -76.6485 C.2       4 UNK         0.5053 
     51 O         -76.7738   25.1590  -75.9478 O.2       4 UNK        -0.5105 
     52 CA        -78.5928   24.3118  -77.2911 C.3       4 UNK         0.0263 
     53 CB        -77.9186   22.9332  -77.1943 C.3       4 UNK        -0.1981 
     54 N         -79.9257   24.2185  -76.7004 N.am      4 UNK        -0.4224 
     55 C         -80.9545   25.0451  -76.9226 C.2       3 UNK         0.4895 
     56 O         -80.8896   26.0094  -77.6866 O.2       3 UNK        -0.5091 
     57 CA        -82.2722   24.7775  -76.1656 C.3       3 UNK         0.0250 
     58 CB        -83.3410   24.1841  -77.1048 C.3       3 UNK        -0.1996 
     59 N         -82.1331   23.9804  -74.9347 N.am      3 UNK        -0.4254 
     60 C         -81.7984   22.6897  -74.7893 C.2       2 UNK         0.5004 
     61 O         -81.5543   21.9339  -75.7302 O.2       2 UNK        -0.5226 
     62 CA        -81.5959   22.2034  -73.3418 C.3       2 UNK         0.0269 
     63 CB        -81.5406   20.6681  -73.2380 C.3       2 UNK        -0.1926 
     64 N         -80.3577   22.7589  -72.7891 N.am      2 UNK        -0.4687 
     65 C         -80.1825   24.0278  -72.3973 C.2       1 UNK         0.5165 
     66 O         -81.1055   24.8455  -72.3730 O.2       1 UNK        -0.5079 
     67 H67       -75.1790   22.0157  -73.2458 H         1 UNK         0.0900 
     68 H68       -76.3305   21.6184  -74.5223 H         1 UNK         0.0900 
     69 H69       -75.7176   23.2708  -74.3550 H         1 UNK         0.0900 
     70 H70       -77.4312   24.5428  -73.6771 H         1 UNK         0.2959 
     71 H71       -78.5546   24.0086  -71.0392 H         1 UNK         0.1079 
     72 H72       -77.5647   26.2934  -72.0995 H         1 UNK         0.0837 
     73 H73       -79.2030   26.5290  -72.5989 H         1 UNK         0.0837 
     74 H74       -79.5743   28.8129  -69.5403 H         1 UNK         0.0685 
     75 H75       -80.6413   28.1390  -70.7495 H         1 UNK         0.0685 
     76 H76       -80.5658   29.3105  -72.7837 H         1 UNK         0.1434 
     77 H77       -76.8865   30.8486  -74.3624 H         1 UNK         0.1329 
     78 H78       -76.9338   28.8950  -70.5444 H         1 UNK         0.1335 
     79 H79       -74.7801   29.8529  -73.2843 H         1 UNK         0.0680 
     80 H80       -74.8363   29.3684  -71.6036 H         1 UNK         0.0680 
     81 H81       -72.9175   30.5943  -70.8346 H         1 UNK         0.1032 
     82 H82       -72.8658   32.3119  -70.5671 H         1 UNK         0.1032 
     83 H83       -72.4029   32.6021  -73.0906 H         1 UNK         0.0461 
     84 H84       -70.9069   34.0146  -72.0346 H         1 UNK         0.3453 
     85 H85       -69.3459   33.4505  -71.4985 H         1 UNK         0.3453 
     86 H86       -72.2484   29.6535  -72.9815 H         1 UNK         0.2984 
     87 H87       -72.1068   29.4655  -76.4727 H         1 UNK         0.0554 
     88 H88       -69.6614   29.4414  -76.0717 H         1 UNK         0.0847 
     89 H89       -70.2825   27.8053  -76.2245 H         1 UNK         0.0847 
     90 H90       -69.8766   28.4543  -74.6349 H         1 UNK         0.0847 
     91 H91       -73.4298   27.9879  -75.6074 H         1 UNK         0.3141 
     92 H92       -73.0735   25.5294  -73.0893 H         1 UNK         0.0743 
     93 H93       -74.7715   27.0534  -72.1279 H         1 UNK         0.0784 
     94 H94       -75.4473   27.3589  -73.7275 H         1 UNK         0.0784 
     95 H95       -75.5296   25.7471  -73.0161 H         1 UNK         0.0784 
     96 H96       -74.6900   25.7422  -75.4706 H         1 UNK         0.3213 
     97 H97       -72.3004   24.2540  -77.6634 H         1 UNK         0.0855 
     98 H98       -74.9252   23.1609  -76.5275 H         1 UNK         0.0814 
     99 H99       -73.3853   22.3175  -76.5353 H         1 UNK         0.0814 
    100 H100      -74.1838   22.6893  -78.0548 H         1 UNK         0.0814 
    101 H101      -75.0370   25.2727  -77.8294 H         1 UNK         0.3105 
    102 H102      -74.0998   28.4955  -78.9432 H         1 UNK         0.0547 
    103 H103      -75.2287   26.1963  -80.6317 H         1 UNK         0.0837 
    104 H104      -73.8230   27.1683  -81.0418 H         1 UNK         0.0837 
    105 H105      -75.4073   27.9188  -80.9698 H         1 UNK         0.0837 
    106 H106      -76.6366   27.2155  -78.8331 H         1 UNK         0.3020 
    107 H107      -77.3646   27.8827  -75.4118 H         1 UNK         0.1245 
    108 H108      -78.3556   29.2155  -77.9920 H         1 UNK         0.0781 
    109 H109      -77.6293   30.0775  -76.6655 H         1 UNK         0.0781 
    110 H110      -80.5382   31.0394  -74.6051 H         1 UNK         0.0836 
    111 H111      -79.0472   31.4777  -75.3891 H         1 UNK         0.0836 
    112 H112      -79.0166   26.8078  -77.4203 H         1 UNK         0.3022 
    113 H113      -78.7007   24.5514  -78.3511 H         1 UNK         0.0747 
    114 H114      -77.7718   22.6274  -76.1591 H         1 UNK         0.0793 
    115 H115      -78.5166   22.1654  -77.6856 H         1 UNK         0.0793 
    116 H116      -76.9450   22.9400  -77.6837 H         1 UNK         0.0793 
    117 H117      -80.1049   23.4163  -76.1097 H         1 UNK         0.3047 
    118 H118      -82.6309   25.7549  -75.8386 H         1 UNK         0.0822 
    119 H119      -84.2917   24.0488  -76.5892 H         1 UNK         0.0807 
    120 H120      -83.0383   23.2189  -77.5116 H         1 UNK         0.0807 
    121 H121      -83.5238   24.8466  -77.9519 H         1 UNK         0.0807 
    122 H122      -82.1876   24.5187  -74.0748 H         1 UNK         0.2946 
    123 H123      -82.4448   22.5519  -72.7485 H         1 UNK         0.1144 
    124 H124      -81.4621   20.3444  -72.1999 H         1 UNK         0.0793 
    125 H125      -80.6906   20.2541  -73.7822 H         1 UNK         0.0793 
    126 H126      -82.4439   20.2165  -73.6503 H         1 UNK         0.0793 
    127 H127      -79.5474   22.1501  -72.7672 H         1 UNK         0.2896 
@<TRIPOS>BOND
     1    1    2 1    
     2    1   67 1    
     3    1   68 1    
     4    1   69 1    
     5    2    3 2    
     6    2    4 am   BACKBONE|DICT|INTERRES
     7    4    5 1    
     8    4   70 1    
     9    5    6 1    
    10    5   65 1    
    11    5   71 1    
    12    6    7 1    
    13    6   72 1    
    14    6   73 1    
    15    7    8 1    
    16    8    9 1    
    17    8   74 1    
    18    8   75 1    
    19    9   10 ar   
    20    9   14 ar   
    21   10   11 ar   
    22   10   76 1    
    23   11   12 ar   
    24   11   48 1    
    25   12   13 ar   
    26   12   77 1    
    27   13   14 ar   
    28   13   15 1    
    29   14   78 1    
    30   15   16 1    
    31   15   79 1    
    32   15   80 1    
    33   16   17 1    
    34   17   18 1    
    35   17   81 1    
    36   17   82 1    
    37   18   19 1    
    38   18   22 1    
    39   18   83 1    
    40   19   20 am   BACKBONE|DICT|INTERRES
    41   19   21 2    
    42   20   84 1    
    43   20   85 1    
    44   22   23 am   BACKBONE|DICT|INTERRES
    45   22   86 1    
    46   23   24 2    
    47   23   25 1    
    48   25   26 1    
    49   25   27 1    
    50   25   87 1    
    51   26   88 1    
    52   26   89 1    
    53   26   90 1    
    54   27   28 am   BACKBONE|DICT|INTERRES
    55   27   91 1    
    56   28   29 2    
    57   28   30 1    
    58   30   31 1    
    59   30   32 1    
    60   30   92 1    
    61   31   93 1    
    62   31   94 1    
    63   31   95 1    
    64   32   33 am   BACKBONE|DICT|INTERRES
    65   32   96 1    
    66   33   34 2    
    67   33   35 1    
    68   35   36 1    
    69   35   37 1    
    70   35   97 1    
    71   36   98 1    
    72   36   99 1    
    73   36  100 1    
    74   37   38 am   BACKBONE|DICT|INTERRES
    75   37  101 1    
    76   38   39 2    
    77   38   40 1    
    78   40   41 1    
    79   40   42 1    
    80   40  102 1    
    81   41  103 1    
    82   41  104 1    
    83   41  105 1    
    84   42   43 am   BACKBONE|DICT|INTERRES
    85   42  106 1    
    86   43   44 2    
    87   43   45 1    
    88   45   46 1    
    89   45   49 1    
    90   45  107 1    
    91   46   47 1    
    92   46  108 1    
    93   46  109 1    
    94   47   48 1    
    95   48  110 1    
    96   48  111 1    
    97   49   50 am   BACKBONE|DICT|INTERRES
    98   49  112 1    
    99   50   51 2    
   100   50   52 1    
   101   52   53 1    
   102   52   54 1    
   103   52  113 1    
   104   53  114 1    
   105   53  115 1    
   106   53  116 1    
   107   54   55 am   BACKBONE|DICT|INTERRES
   108   54  117 1    
   109   55   56 2    
   110   55   57 1    
   111   57   58 1    
   112   57   59 1    
   113   57  118 1    
   114   58  119 1    
   115   58  120 1    
   116   58  121 1    
   117   59   60 am   BACKBONE|DICT|INTERRES
   118   59  122 1    
   119   60   61 2    
   120   60   62 1    
   121   62   63 1    
   122   62   64 1    
   123   62  123 1    
   124   63  124 1    
   125   63  125 1    
   126   63  126 1    
   127   64   65 am   BACKBONE|DICT|INTERRES
   128   64  127 1    
   129   65   66 2    
@<TRIPOS>SUBSTRUCTURE
     1 UNK         1 GROUP             0       ****    0 ROOT    
