@<TRIPOS>MOLECULE
3R135
127   129    1
SMALL
USER_CHARGES


@<TRIPOS>ATOM
      1 CA        -81.6196   25.6944  -71.9805 C.3       0 UNK        -0.1998 
      2 C         -81.5550   26.0499  -73.4583 C.2       0 UNK         0.4909 
      3 O         -82.3569   25.5454  -74.2453 O.2       0 UNK        -0.5240 
      4 N         -80.6005   26.9063  -73.8486 N.am      1 UNK        -0.4739 
      5 CA        -80.3276   27.2850  -75.2379 C.3       1 UNK         0.0864 
      6 C6        -79.2572   28.4010  -75.3290 C.3       11 UNK        -0.0881 
      7 S7        -79.9603   30.0802  -75.1839 S.3       11 UNK        -0.2682 
      8 C8        -80.2128   30.3151  -73.3944 C.3       11 UNK         0.0289 
      9 C9        -78.9725   30.0101  -72.5673 C.ar      11 UNK        -0.0687 
     10 C10       -78.9871   28.9419  -71.6676 C.ar      11 UNK        -0.0823 
     11 C11       -77.8536   28.6315  -70.9155 C.ar      11 UNK        -0.0830 
     12 C12       -76.7140   29.4314  -71.0282 C.ar      11 UNK        -0.1021 
     13 C13       -76.6856   30.5085  -71.9191 C.ar      11 UNK        -0.0753 
     14 C14       -77.8184   30.7914  -72.6902 C.ar      11 UNK        -0.0933 
     15 C15       -75.4360   31.3696  -72.0413 C.3       11 UNK         0.0166 
     16 S16       -74.2719   30.7065  -73.2745 S.3       11 UNK        -0.2615 
     17 C17       -73.5749   29.2610  -72.4064 C.3       11 UNK        -0.0865 
     18 CA        -72.0506   29.1158  -72.6404 C.3       10 UNK         0.0862 
     19 C         -71.4355   28.1154  -71.6193 C.2       10 UNK         0.5551 
     20 N         -71.1234   28.5803  -70.4169 N.am      10 UNK        -0.7319 
     21 O         -71.2701   26.9269  -71.8877 O.2       10 UNK        -0.5018 
     22 N         -71.7555   28.7627  -74.0374 N.am      10 UNK        -0.4509 
     23 C         -70.5250   28.7161  -74.5645 C.2       10 UNK         0.4899 
     24 O         -69.5132   29.1105  -73.9831 O.2       10 UNK        -0.4839 
     25 CA        -70.3886   28.1273  -75.9742 C.3       9 UNK         0.0222 
     26 CB        -70.4881   26.5934  -75.9216 C.3       9 UNK        -0.1966 
     27 N         -71.4120   28.6488  -76.8815 N.am      9 UNK        -0.4218 
     28 C         -71.1730   29.4938  -77.8951 C.2       9 UNK         0.5020 
     29 O         -70.0615   29.9629  -78.1463 O.2       9 UNK        -0.5274 
     30 CA        -72.3488   29.8651  -78.8196 C.3       8 UNK         0.0270 
     31 CB        -72.2405   29.1039  -80.1519 C.3       8 UNK        -0.1976 
     32 N         -73.6633   29.6035  -78.2329 N.am      8 UNK        -0.4313 
     33 C         -74.2498   30.3712  -77.3058 C.2       8 UNK         0.5041 
     34 O         -73.7719   31.4285  -76.8941 O.2       8 UNK        -0.5577 
     35 CA        -75.6012   29.8800  -76.7502 C.3       7 UNK         0.0284 
     36 CB        -76.7470   30.5484  -77.5284 C.3       7 UNK        -0.1958 
     37 N         -75.7909   28.4201  -76.7584 N.am      7 UNK        -0.4454 
     38 C         -74.9750   27.5140  -76.1989 C.2       7 UNK         0.5089 
     39 O         -73.9059   27.7977  -75.6562 O.2       7 UNK        -0.5125 
     40 CA        -75.4035   26.0429  -76.3388 C.3       6 UNK         0.0408 
     41 CB        -74.2176   25.1358  -76.7241 C.3       6 UNK        -0.1791 
     42 N         -76.0988   25.5223  -75.1566 N.am      6 UNK        -0.4762 
     43 C         -75.6321   25.3722  -73.9052 C.2       6 UNK         0.5007 
     44 O         -74.5142   25.7231  -73.5305 O.2       6 UNK        -0.5032 
     45 CA        -76.5537   24.6285  -72.9136 C.3       5 UNK         0.0783 
     46 C46       -77.4976   25.5811  -72.1329 C.3       11 UNK        -0.0857 
     47 S47       -76.7213   26.1286  -70.5723 S.3       11 UNK        -0.2512 
     48 C48       -77.8558   27.4271  -69.9879 C.3       11 UNK         0.0225 
     49 N         -77.2691   23.5178  -73.5584 N.am      5 UNK        -0.4615 
     50 C         -76.6902   22.3438  -73.8495 C.2       4 UNK         0.5053 
     51 O         -75.5048   22.1076  -73.6110 O.2       4 UNK        -0.5105 
     52 CA        -77.5226   21.2309  -74.5179 C.3       4 UNK         0.0263 
     53 CB        -77.5264   19.9491  -73.6584 C.3       4 UNK        -0.1981 
     54 N         -78.8891   21.5774  -74.9275 N.am      4 UNK        -0.4224 
     55 C         -79.9555   21.8718  -74.1720 C.2       3 UNK         0.4895 
     56 O         -79.9149   22.0406  -72.9528 O.2       3 UNK        -0.5091 
     57 CA        -81.2879   22.0144  -74.9354 C.3       3 UNK         0.0250 
     58 CB        -82.5031   22.1557  -74.0006 C.3       3 UNK        -0.1996 
     59 N         -81.2492   23.1435  -75.8689 N.am      3 UNK        -0.4254 
     60 C         -80.6127   23.1353  -77.0515 C.2       2 UNK         0.5004 
     61 O         -80.0580   22.1354  -77.5110 O.2       2 UNK        -0.5226 
     62 CA        -80.5362   24.4536  -77.8434 C.3       2 UNK         0.0269 
     63 CB        -81.5727   24.4588  -78.9785 C.3       2 UNK        -0.1926 
     64 N         -80.7140   25.6551  -77.0240 N.am      2 UNK        -0.4687 
     65 C         -79.8963   26.0395  -76.0349 C.2       1 UNK         0.5165 
     66 O         -78.8662   25.4400  -75.7167 O.2       1 UNK        -0.5079 
     67 H67       -81.4084   24.6344  -71.8417 H         1 UNK         0.0900 
     68 H68       -82.6160   25.8977  -71.5892 H         1 UNK         0.0900 
     69 H69       -80.9013   26.2575  -71.3874 H         1 UNK         0.0900 
     70 H70       -79.9554   27.2786  -73.1704 H         1 UNK         0.2959 
     71 H71       -81.2594   27.6571  -75.6700 H         1 UNK         0.1079 
     72 H72       -78.4514   28.2523  -74.6080 H         1 UNK         0.0837 
     73 H73       -78.7722   28.3786  -76.3059 H         1 UNK         0.0837 
     74 H74       -80.5116   31.3491  -73.2169 H         1 UNK         0.0685 
     75 H75       -81.0557   29.6992  -73.0776 H         1 UNK         0.0685 
     76 H76       -79.8837   28.3528  -71.5490 H         1 UNK         0.1434 
     77 H77       -75.8457   29.2000  -70.4283 H         1 UNK         0.1329 
     78 H78       -77.8038   31.6182  -73.3873 H         1 UNK         0.1335 
     79 H79       -75.7145   32.3822  -72.3371 H         1 UNK         0.0680 
     80 H80       -74.9400   31.4646  -71.0741 H         1 UNK         0.0680 
     81 H81       -74.1066   28.3623  -72.7265 H         1 UNK         0.1032 
     82 H82       -73.7753   29.3701  -71.3402 H         1 UNK         0.1032 
     83 H83       -71.5855   30.0866  -72.4560 H         1 UNK         0.0461 
     84 H84       -70.7345   27.9488  -69.7342 H         1 UNK         0.3453 
     85 H85       -71.2538   29.5520  -70.1820 H         1 UNK         0.3453 
     86 H86       -72.5403   28.3996  -74.5736 H         1 UNK         0.2984 
     87 H87       -69.3911   28.3779  -76.3411 H         1 UNK         0.0554 
     88 H88       -70.3660   26.1523  -76.9108 H         1 UNK         0.0847 
     89 H89       -71.4477   26.2640  -75.5221 H         1 UNK         0.0847 
     90 H90       -69.7108   26.1753  -75.2805 H         1 UNK         0.0847 
     91 H91       -72.3686   28.3684  -76.6858 H         1 UNK         0.3141 
     92 H92       -72.2709   30.9336  -79.0322 H         1 UNK         0.0743 
     93 H93       -71.2853   29.3044  -80.6395 H         1 UNK         0.0784 
     94 H94       -72.3120   28.0249  -80.0087 H         1 UNK         0.0784 
     95 H95       -73.0248   29.4049  -80.8468 H         1 UNK         0.0784 
     96 H96       -74.1393   28.7640  -78.5290 H         1 UNK         0.3213 
     97 H97       -75.6648   30.2056  -75.7117 H         1 UNK         0.0855 
     98 H98       -76.6281   31.6329  -77.5423 H         1 UNK         0.0814 
     99 H99       -77.7142   30.3458  -77.0739 H         1 UNK         0.0814 
    100 H100      -76.7834   30.2124  -78.5653 H         1 UNK         0.0814 
    101 H101      -76.6276   28.0854  -77.2125 H         1 UNK         0.3105 
    102 H102      -76.1243   25.9852  -77.1561 H         1 UNK         0.0547 
    103 H103      -73.7131   25.5069  -77.6169 H         1 UNK         0.0837 
    104 H104      -73.4721   25.0792  -75.9312 H         1 UNK         0.0837 
    105 H105      -74.5511   24.1203  -76.9372 H         1 UNK         0.0837 
    106 H106      -77.0691   25.2594  -75.3217 H         1 UNK         0.3020 
    107 H107      -75.8834   24.1650  -72.1848 H         1 UNK         0.1245 
    108 H108      -78.4243   25.0700  -71.8666 H         1 UNK         0.0781 
    109 H109      -77.7874   26.4426  -72.7366 H         1 UNK         0.0781 
    110 H110      -77.5471   27.7435  -68.9905 H         1 UNK         0.0836 
    111 H111      -78.8577   27.0090  -69.8797 H         1 UNK         0.0836 
    112 H112      -78.2439   23.6545  -73.7837 H         1 UNK         0.3022 
    113 H113      -76.9984   20.9968  -75.4457 H         1 UNK         0.0747 
    114 H114      -78.0499   19.1354  -74.1605 H         1 UNK         0.0793 
    115 H115      -76.5105   19.6037  -73.4618 H         1 UNK         0.0793 
    116 H116      -78.0047   20.1108  -72.6918 H         1 UNK         0.0793 
    117 H117      -79.0565   21.5511  -75.9305 H         1 UNK         0.3047 
    118 H118      -81.4296   21.0948  -75.5078 H         1 UNK         0.0822 
    119 H119      -83.4325   22.2276  -74.5655 H         1 UNK         0.0807 
    120 H120      -82.4298   23.0366  -73.3648 H         1 UNK         0.0807 
    121 H121      -82.5895   21.2896  -73.3433 H         1 UNK         0.0807 
    122 H122      -81.6546   24.0133  -75.5390 H         1 UNK         0.2946 
    123 H123      -79.5388   24.4992  -78.2868 H         1 UNK         0.1144 
    124 H124      -81.4481   23.5891  -79.6254 H         1 UNK         0.0793 
    125 H125      -81.4699   25.3437  -79.6071 H         1 UNK         0.0793 
    126 H126      -82.5931   24.4349  -78.5938 H         1 UNK         0.0793 
    127 H127      -81.5539   26.1903  -77.1942 H         1 UNK         0.2896 
@<TRIPOS>BOND
     1    1    2 1    
     2    1   67 1    
     3    1   68 1    
     4    1   69 1    
     5    2    3 2    
     6    2    4 am   BACKBONE|DICT|INTERRES
     7    4    5 1    
     8    4   70 1    
     9    5    6 1    
    10    5   65 1    
    11    5   71 1    
    12    6    7 1    
    13    6   72 1    
    14    6   73 1    
    15    7    8 1    
    16    8    9 1    
    17    8   74 1    
    18    8   75 1    
    19    9   10 ar   
    20    9   14 ar   
    21   10   11 ar   
    22   10   76 1    
    23   11   12 ar   
    24   11   48 1    
    25   12   13 ar   
    26   12   77 1    
    27   13   14 ar   
    28   13   15 1    
    29   14   78 1    
    30   15   16 1    
    31   15   79 1    
    32   15   80 1    
    33   16   17 1    
    34   17   18 1    
    35   17   81 1    
    36   17   82 1    
    37   18   19 1    
    38   18   22 1    
    39   18   83 1    
    40   19   20 am   BACKBONE|DICT|INTERRES
    41   19   21 2    
    42   20   84 1    
    43   20   85 1    
    44   22   23 am   BACKBONE|DICT|INTERRES
    45   22   86 1    
    46   23   24 2    
    47   23   25 1    
    48   25   26 1    
    49   25   27 1    
    50   25   87 1    
    51   26   88 1    
    52   26   89 1    
    53   26   90 1    
    54   27   28 am   BACKBONE|DICT|INTERRES
    55   27   91 1    
    56   28   29 2    
    57   28   30 1    
    58   30   31 1    
    59   30   32 1    
    60   30   92 1    
    61   31   93 1    
    62   31   94 1    
    63   31   95 1    
    64   32   33 am   BACKBONE|DICT|INTERRES
    65   32   96 1    
    66   33   34 2    
    67   33   35 1    
    68   35   36 1    
    69   35   37 1    
    70   35   97 1    
    71   36   98 1    
    72   36   99 1    
    73   36  100 1    
    74   37   38 am   BACKBONE|DICT|INTERRES
    75   37  101 1    
    76   38   39 2    
    77   38   40 1    
    78   40   41 1    
    79   40   42 1    
    80   40  102 1    
    81   41  103 1    
    82   41  104 1    
    83   41  105 1    
    84   42   43 am   BACKBONE|DICT|INTERRES
    85   42  106 1    
    86   43   44 2    
    87   43   45 1    
    88   45   46 1    
    89   45   49 1    
    90   45  107 1    
    91   46   47 1    
    92   46  108 1    
    93   46  109 1    
    94   47   48 1    
    95   48  110 1    
    96   48  111 1    
    97   49   50 am   BACKBONE|DICT|INTERRES
    98   49  112 1    
    99   50   51 2    
   100   50   52 1    
   101   52   53 1    
   102   52   54 1    
   103   52  113 1    
   104   53  114 1    
   105   53  115 1    
   106   53  116 1    
   107   54   55 am   BACKBONE|DICT|INTERRES
   108   54  117 1    
   109   55   56 2    
   110   55   57 1    
   111   57   58 1    
   112   57   59 1    
   113   57  118 1    
   114   58  119 1    
   115   58  120 1    
   116   58  121 1    
   117   59   60 am   BACKBONE|DICT|INTERRES
   118   59  122 1    
   119   60   61 2    
   120   60   62 1    
   121   62   63 1    
   122   62   64 1    
   123   62  123 1    
   124   63  124 1    
   125   63  125 1    
   126   63  126 1    
   127   64   65 am   BACKBONE|DICT|INTERRES
   128   64  127 1    
   129   65   66 2    
@<TRIPOS>SUBSTRUCTURE
     1 UNK         1 GROUP             0       ****    0 ROOT    
