@<TRIPOS>MOLECULE
3R135
127   129    1
SMALL
USER_CHARGES


@<TRIPOS>ATOM
      1 CA        -78.8096   21.5376  -70.9656 C.3       0 UNK        -0.1998 
      2 C         -80.2071   22.1361  -71.0186 C.2       0 UNK         0.4909 
      3 O         -81.1911   21.4137  -70.8595 O.2       0 UNK        -0.5240 
      4 N         -80.3026   23.4518  -71.2483 N.am      1 UNK        -0.4739 
      5 CA        -81.5616   24.2046  -71.3393 C.3       1 UNK         0.0864 
      6 C6        -81.3556   25.6976  -70.9770 C.3       11 UNK        -0.0881 
      7 S7        -80.1347   26.5651  -72.0228 S.3       11 UNK        -0.2682 
      8 C8        -80.2673   28.2342  -71.3159 C.3       11 UNK         0.0289 
      9 C9        -79.1736   29.1537  -71.8358 C.ar      11 UNK        -0.0687 
     10 C10       -79.3025   29.7641  -73.0874 C.ar      11 UNK        -0.0823 
     11 C11       -78.3220   30.6445  -73.5570 C.ar      11 UNK        -0.0830 
     12 C12       -77.2011   30.9011  -72.7568 C.ar      11 UNK        -0.1021 
     13 C13       -77.0544   30.2908  -71.5096 C.ar      11 UNK        -0.0753 
     14 C14       -78.0472   29.4208  -71.0507 C.ar      11 UNK        -0.0933 
     15 C15       -75.8407   30.6117  -70.6471 C.3       11 UNK         0.0166 
     16 S16       -74.7472   29.1789  -70.3931 S.3       11 UNK        -0.2615 
     17 C17       -74.1754   28.8010  -72.0874 C.3       11 UNK        -0.0865 
     18 CA        -72.8932   29.5220  -72.5843 C.3       10 UNK         0.0862 
     19 C         -71.6827   29.3371  -71.6136 C.2       10 UNK         0.5551 
     20 N         -70.7602   28.4145  -71.8651 N.am      10 UNK        -0.7319 
     21 O         -71.5613   30.0646  -70.6312 O.2       10 UNK        -0.5018 
     22 N         -72.6235   29.1069  -73.9705 N.am      10 UNK        -0.4509 
     23 C         -71.6534   29.5821  -74.7633 C.2       10 UNK         0.4899 
     24 O         -70.9912   30.5876  -74.5028 O.2       10 UNK        -0.4839 
     25 CA        -71.3602   28.7786  -76.0520 C.3       9 UNK         0.0222 
     26 CB        -69.8953   28.9238  -76.5158 C.3       9 UNK        -0.1966 
     27 N         -71.7371   27.3565  -75.9604 N.am      9 UNK        -0.4218 
     28 C         -71.2923   26.4626  -75.0610 C.2       9 UNK         0.5020 
     29 O         -70.4247   26.7187  -74.2247 O.2       9 UNK        -0.5274 
     30 CA        -71.9446   25.0704  -75.0321 C.3       8 UNK         0.0270 
     31 CB        -72.4943   24.7543  -73.6274 C.3       8 UNK        -0.1976 
     32 N         -73.0339   24.9113  -76.0026 N.am      8 UNK        -0.4313 
     33 C         -73.1686   23.8498  -76.8098 C.2       8 UNK         0.5041 
     34 O         -72.3361   22.9454  -76.8959 O.2       8 UNK        -0.5577 
     35 CA        -74.4523   23.7453  -77.6501 C.3       7 UNK         0.0284 
     36 CB        -75.5352   22.9619  -76.8901 C.3       7 UNK        -0.1958 
     37 N         -74.9979   25.0319  -78.0843 N.am      7 UNK        -0.4454 
     38 C         -74.4614   25.7851  -79.0543 C.2       7 UNK         0.5089 
     39 O         -73.3876   25.5384  -79.6032 O.2       7 UNK        -0.5125 
     40 CA        -75.2675   27.0138  -79.4945 C.3       6 UNK         0.0408 
     41 CB        -76.4496   26.5950  -80.3847 C.3       6 UNK        -0.1791 
     42 N         -75.7682   27.7521  -78.3369 N.am      6 UNK        -0.4762 
     43 C         -75.1476   28.8045  -77.7874 C.2       6 UNK         0.5007 
     44 O         -74.1084   29.2900  -78.2322 O.2       6 UNK        -0.5032 
     45 CA        -75.7954   29.4367  -76.5361 C.3       5 UNK         0.0783 
     46 C46       -76.7901   30.5391  -76.9831 C.3       11 UNK        -0.0857 
     47 S47       -77.0046   31.8533  -75.7449 S.3       11 UNK        -0.2512 
     48 C48       -78.5414   31.3683  -74.8851 C.3       11 UNK         0.0225 
     49 N         -76.4409   28.4391  -75.6714 N.am      5 UNK        -0.4615 
     50 C         -75.8307   27.3864  -75.1082 C.2       4 UNK         0.5053 
     51 O         -74.6120   27.2154  -75.1269 O.2       4 UNK        -0.5105 
     52 CA        -76.7195   26.2976  -74.4787 C.3       4 UNK         0.0263 
     53 CB        -76.7149   26.3912  -72.9491 C.3       4 UNK        -0.1981 
     54 N         -78.1001   26.2726  -74.9837 N.am      4 UNK        -0.4224 
     55 C         -78.4201   26.0111  -76.2600 C.2       3 UNK         0.4895 
     56 O         -77.5766   25.7893  -77.1316 O.2       3 UNK        -0.5091 
     57 CA        -79.9116   25.9623  -76.6089 C.3       3 UNK         0.0250 
     58 CB        -80.1447   25.8864  -78.1357 C.3       3 UNK        -0.1996 
     59 N         -80.4926   24.8096  -75.9251 N.am      3 UNK        -0.4254 
     60 C         -81.7953   24.5117  -75.8384 C.2       2 UNK         0.5004 
     61 O         -82.6991   25.1909  -76.3261 O.2       2 UNK        -0.5226 
     62 CA        -82.1413   23.2471  -75.0390 C.3       2 UNK         0.0269 
     63 CB        -81.5593   21.9814  -75.6938 C.3       2 UNK        -0.1926 
     64 N         -81.6539   23.3651  -73.6647 N.am      2 UNK        -0.4687 
     65 C         -82.2867   24.0417  -72.6952 C.2       1 UNK         0.5165 
     66 O         -83.4049   24.5394  -72.8389 O.2       1 UNK        -0.5079 
     67 H67       -78.6347   21.0801  -69.9922 H         1 UNK         0.0900 
     68 H68       -78.0373   22.2889  -71.1304 H         1 UNK         0.0900 
     69 H69       -78.7017   20.7671  -71.7285 H         1 UNK         0.0900 
     70 H70       -79.4651   24.0044  -71.3699 H         1 UNK         0.2959 
     71 H71       -82.2469   23.7911  -70.5956 H         1 UNK         0.1079 
     72 H72       -82.3038   26.2377  -71.0171 H         1 UNK         0.0837 
     73 H73       -81.0228   25.7702  -69.9402 H         1 UNK         0.0837 
     74 H74       -80.2171   28.1712  -70.2276 H         1 UNK         0.0685 
     75 H75       -81.2470   28.6507  -71.5550 H         1 UNK         0.0685 
     76 H76       -80.1840   29.5701  -73.6836 H         1 UNK         0.1434 
     77 H77       -76.4442   31.5970  -73.0895 H         1 UNK         0.1329 
     78 H78       -77.9414   28.9549  -70.0804 H         1 UNK         0.1335 
     79 H79       -75.2569   31.4259  -71.0795 H         1 UNK         0.0680 
     80 H80       -76.1829   30.9666  -69.6740 H         1 UNK         0.0680 
     81 H81       -74.0068   27.7244  -72.1259 H         1 UNK         0.1032 
     82 H82       -74.9943   28.9958  -72.7795 H         1 UNK         0.1032 
     83 H83       -73.1072   30.5919  -72.6149 H         1 UNK         0.0461 
     84 H84       -70.7956   27.8422  -72.7034 H         1 UNK         0.3453 
     85 H85       -69.9815   28.3194  -71.2336 H         1 UNK         0.3453 
     86 H86       -73.1452   28.3025  -74.3021 H         1 UNK         0.2984 
     87 H87       -71.9882   29.2156  -76.8259 H         1 UNK         0.0554 
     88 H88       -69.7107   28.3599  -77.4300 H         1 UNK         0.0847 
     89 H89       -69.1937   28.5742  -75.7578 H         1 UNK         0.0847 
     90 H90       -69.6519   29.9659  -76.7263 H         1 UNK         0.0847 
     91 H91       -72.4616   27.0593  -76.5976 H         1 UNK         0.3141 
     92 H92       -71.1380   24.3668  -75.2474 H         1 UNK         0.0743 
     93 H93       -71.7116   24.8188  -72.8704 H         1 UNK         0.0784 
     94 H94       -73.2850   25.4482  -73.3402 H         1 UNK         0.0784 
     95 H95       -72.9024   23.7446  -73.5806 H         1 UNK         0.0784 
     96 H96       -73.7730   25.6060  -75.9587 H         1 UNK         0.3213 
     97 H97       -74.2019   23.1740  -78.5471 H         1 UNK         0.0855 
     98 H98       -75.8305   23.4629  -75.9695 H         1 UNK         0.0814 
     99 H99       -75.1768   21.9683  -76.6174 H         1 UNK         0.0814 
    100 H100      -76.4294   22.8272  -77.4991 H         1 UNK         0.0814 
    101 H101      -75.9079   25.2963  -77.7114 H         1 UNK         0.3105 
    102 H102      -74.6128   27.6511  -80.0930 H         1 UNK         0.0547 
    103 H103      -76.9995   27.4643  -80.7451 H         1 UNK         0.0837 
    104 H104      -76.1018   26.0464  -81.2610 H         1 UNK         0.0837 
    105 H105      -77.1536   25.9511  -79.8561 H         1 UNK         0.0837 
    106 H106      -76.5915   27.3711  -77.8834 H         1 UNK         0.3020 
    107 H107      -74.9837   29.8938  -75.9654 H         1 UNK         0.1245 
    108 H108      -77.7538   30.1133  -77.2673 H         1 UNK         0.0781 
    109 H109      -76.4296   31.0535  -77.8771 H         1 UNK         0.0781 
    110 H110      -79.1660   30.7707  -75.5502 H         1 UNK         0.0836 
    111 H111      -79.1084   32.2763  -74.6766 H         1 UNK         0.0836 
    112 H112      -77.4405   28.5187  -75.5668 H         1 UNK         0.3022 
    113 H113      -76.2671   25.3408  -74.7405 H         1 UNK         0.0747 
    114 H114      -77.3289   25.6115  -72.4995 H         1 UNK         0.0793 
    115 H115      -75.7082   26.2607  -72.5547 H         1 UNK         0.0793 
    116 H116      -77.0830   27.3558  -72.6043 H         1 UNK         0.0793 
    117 H117      -78.8354   26.4423  -74.3095 H         1 UNK         0.3047 
    118 H118      -80.3760   26.8729  -76.2252 H         1 UNK         0.0822 
    119 H119      -79.6455   26.7094  -78.6490 H         1 UNK         0.0807 
    120 H120      -81.2024   25.9519  -78.3889 H         1 UNK         0.0807 
    121 H121      -79.7576   24.9572  -78.5557 H         1 UNK         0.0807 
    122 H122      -79.8271   24.1947  -75.4777 H         1 UNK         0.2946 
    123 H123      -83.2296   23.1480  -75.0278 H         1 UNK         0.1144 
    124 H124      -81.8925   21.8909  -76.7287 H         1 UNK         0.0793 
    125 H125      -81.8880   21.0831  -75.1705 H         1 UNK         0.0793 
    126 H126      -80.4690   21.9807  -75.7006 H         1 UNK         0.0793 
    127 H127      -80.7469   22.9764  -73.4536 H         1 UNK         0.2896 
@<TRIPOS>BOND
     1    1    2 1    
     2    1   67 1    
     3    1   68 1    
     4    1   69 1    
     5    2    3 2    
     6    2    4 am   BACKBONE|DICT|INTERRES
     7    4    5 1    
     8    4   70 1    
     9    5    6 1    
    10    5   65 1    
    11    5   71 1    
    12    6    7 1    
    13    6   72 1    
    14    6   73 1    
    15    7    8 1    
    16    8    9 1    
    17    8   74 1    
    18    8   75 1    
    19    9   10 ar   
    20    9   14 ar   
    21   10   11 ar   
    22   10   76 1    
    23   11   12 ar   
    24   11   48 1    
    25   12   13 ar   
    26   12   77 1    
    27   13   14 ar   
    28   13   15 1    
    29   14   78 1    
    30   15   16 1    
    31   15   79 1    
    32   15   80 1    
    33   16   17 1    
    34   17   18 1    
    35   17   81 1    
    36   17   82 1    
    37   18   19 1    
    38   18   22 1    
    39   18   83 1    
    40   19   20 am   BACKBONE|DICT|INTERRES
    41   19   21 2    
    42   20   84 1    
    43   20   85 1    
    44   22   23 am   BACKBONE|DICT|INTERRES
    45   22   86 1    
    46   23   24 2    
    47   23   25 1    
    48   25   26 1    
    49   25   27 1    
    50   25   87 1    
    51   26   88 1    
    52   26   89 1    
    53   26   90 1    
    54   27   28 am   BACKBONE|DICT|INTERRES
    55   27   91 1    
    56   28   29 2    
    57   28   30 1    
    58   30   31 1    
    59   30   32 1    
    60   30   92 1    
    61   31   93 1    
    62   31   94 1    
    63   31   95 1    
    64   32   33 am   BACKBONE|DICT|INTERRES
    65   32   96 1    
    66   33   34 2    
    67   33   35 1    
    68   35   36 1    
    69   35   37 1    
    70   35   97 1    
    71   36   98 1    
    72   36   99 1    
    73   36  100 1    
    74   37   38 am   BACKBONE|DICT|INTERRES
    75   37  101 1    
    76   38   39 2    
    77   38   40 1    
    78   40   41 1    
    79   40   42 1    
    80   40  102 1    
    81   41  103 1    
    82   41  104 1    
    83   41  105 1    
    84   42   43 am   BACKBONE|DICT|INTERRES
    85   42  106 1    
    86   43   44 2    
    87   43   45 1    
    88   45   46 1    
    89   45   49 1    
    90   45  107 1    
    91   46   47 1    
    92   46  108 1    
    93   46  109 1    
    94   47   48 1    
    95   48  110 1    
    96   48  111 1    
    97   49   50 am   BACKBONE|DICT|INTERRES
    98   49  112 1    
    99   50   51 2    
   100   50   52 1    
   101   52   53 1    
   102   52   54 1    
   103   52  113 1    
   104   53  114 1    
   105   53  115 1    
   106   53  116 1    
   107   54   55 am   BACKBONE|DICT|INTERRES
   108   54  117 1    
   109   55   56 2    
   110   55   57 1    
   111   57   58 1    
   112   57   59 1    
   113   57  118 1    
   114   58  119 1    
   115   58  120 1    
   116   58  121 1    
   117   59   60 am   BACKBONE|DICT|INTERRES
   118   59  122 1    
   119   60   61 2    
   120   60   62 1    
   121   62   63 1    
   122   62   64 1    
   123   62  123 1    
   124   63  124 1    
   125   63  125 1    
   126   63  126 1    
   127   64   65 am   BACKBONE|DICT|INTERRES
   128   64  127 1    
   129   65   66 2    
@<TRIPOS>SUBSTRUCTURE
     1 UNK         1 GROUP             0       ****    0 ROOT    
