@<TRIPOS>MOLECULE
3R135
127   129    1
SMALL
USER_CHARGES


@<TRIPOS>ATOM
      1 CA        -86.2399   26.9392  -73.7967 C.3       0 UNK        -0.1998 
      2 C         -85.1425   27.9905  -73.8665 C.2       0 UNK         0.4909 
      3 O         -85.2640   28.9510  -74.6273 O.2       0 UNK        -0.5240 
      4 N         -84.0754   27.8178  -73.0742 N.am      1 UNK        -0.4739 
      5 CA        -82.9043   28.7040  -73.0331 C.3       1 UNK         0.0864 
      6 C6        -82.0317   28.4032  -71.7901 C.3       11 UNK        -0.0881 
      7 S7        -81.0594   29.8385  -71.2260 S.3       11 UNK        -0.2682 
      8 C8        -80.0457   29.0827  -69.9123 C.3       11 UNK         0.0289 
      9 C9        -78.8919   28.2829  -70.4974 C.ar      11 UNK        -0.0687 
     10 C10       -79.0475   26.9231  -70.7841 C.ar      11 UNK        -0.0823 
     11 C11       -78.0210   26.2092  -71.4055 C.ar      11 UNK        -0.0830 
     12 C12       -76.8190   26.8556  -71.7037 C.ar      11 UNK        -0.1021 
     13 C13       -76.6286   28.1999  -71.3735 C.ar      11 UNK        -0.0753 
     14 C14       -77.6726   28.9101  -70.7732 C.ar      11 UNK        -0.0933 
     15 C15       -75.2967   28.8794  -71.6617 C.3       11 UNK         0.0166 
     16 S16       -75.4608   30.1926  -72.9086 S.3       11 UNK        -0.2615 
     17 C17       -73.7319   30.7587  -73.0626 C.3       11 UNK        -0.0865 
     18 CA        -73.3032   30.9778  -74.5387 C.3       10 UNK         0.0862 
     19 C         -71.9056   31.6641  -74.6238 C.2       10 UNK         0.5551 
     20 N         -70.9134   31.1036  -75.3063 N.am      10 UNK        -0.7319 
     21 O         -71.7194   32.7393  -74.0594 O.2       10 UNK        -0.5018 
     22 N         -73.4283   29.7456  -75.3341 N.am      10 UNK        -0.4509 
     23 C         -73.5520   29.7037  -76.6667 C.2       10 UNK         0.4899 
     24 O         -73.6610   30.7039  -77.3774 O.2       10 UNK        -0.4839 
     25 CA        -73.5371   28.2988  -77.3020 C.3       9 UNK         0.0222 
     26 CB        -73.3241   28.3297  -78.8298 C.3       9 UNK        -0.1966 
     27 N         -72.5767   27.3863  -76.6641 N.am      9 UNK        -0.4218 
     28 C         -71.2512   27.5684  -76.5422 C.2       9 UNK         0.5020 
     29 O         -70.6612   28.5802  -76.9235 O.2       9 UNK        -0.5274 
     30 CA        -70.4383   26.4619  -75.8448 C.3       8 UNK         0.0270 
     31 CB        -70.0583   26.9045  -74.4216 C.3       8 UNK        -0.1976 
     32 N         -71.1153   25.1651  -75.7678 N.am      8 UNK        -0.4313 
     33 C         -71.4171   24.3610  -76.7943 C.2       8 UNK         0.5041 
     34 O         -71.1430   24.6232  -77.9654 O.2       8 UNK        -0.5577 
     35 CA        -72.1741   23.0559  -76.4758 C.3       7 UNK         0.0284 
     36 CB        -71.1974   21.8742  -76.3167 C.3       7 UNK        -0.1958 
     37 N         -73.1127   23.1398  -75.3421 N.am      7 UNK        -0.4454 
     38 C         -72.8474   23.3193  -74.0380 C.2       7 UNK         0.5089 
     39 O         -71.7042   23.4416  -73.5974 O.2       7 UNK        -0.5125 
     40 CA        -74.0329   23.4508  -73.0630 C.3       6 UNK         0.0408 
     41 CB        -73.8606   24.6871  -72.1640 C.3       6 UNK        -0.1791 
     42 N         -75.3288   23.5272  -73.7481 N.am      6 UNK        -0.4762 
     43 C         -76.1508   22.4819  -73.9349 C.2       6 UNK         0.5007 
     44 O         -75.9292   21.3565  -73.4871 O.2       6 UNK        -0.5032 
     45 CA        -77.4210   22.7049  -74.7880 C.3       5 UNK         0.0783 
     46 C46       -78.6820   22.9050  -73.8986 C.3       11 UNK        -0.0857 
     47 S47       -79.0054   24.6414  -73.4206 S.3       11 UNK        -0.2512 
     48 C48       -78.2207   24.7516  -71.7864 C.3       11 UNK         0.0225 
     49 N         -77.2847   23.7727  -75.7838 N.am      5 UNK        -0.4615 
     50 C         -76.3574   23.8735  -76.7430 C.2       4 UNK         0.5053 
     51 O         -75.5360   22.9918  -76.9890 O.2       4 UNK        -0.5105 
     52 CA        -76.2946   25.2022  -77.5189 C.3       4 UNK         0.0263 
     53 CB        -76.8444   25.0224  -78.9418 C.3       4 UNK        -0.1981 
     54 N         -77.0081   26.3070  -76.8678 N.am      4 UNK        -0.4224 
     55 C         -76.7145   26.8568  -75.6819 C.2       3 UNK         0.4895 
     56 O         -75.7579   26.5012  -74.9903 O.2       3 UNK        -0.5091 
     57 CA        -77.6619   27.9603  -75.1743 C.3       3 UNK         0.0250 
     58 CB        -77.3557   29.3105  -75.8512 C.3       3 UNK        -0.1996 
     59 N         -79.0936   27.6246  -75.2647 N.am      3 UNK        -0.4254 
     60 C         -79.8507   27.4694  -76.3618 C.2       2 UNK         0.5004 
     61 O         -79.4181   27.5701  -77.5109 O.2       2 UNK        -0.5226 
     62 CA        -81.3314   27.0972  -76.1686 C.3       2 UNK         0.0269 
     63 CB        -81.5443   25.6036  -76.4686 C.3       2 UNK        -0.1926 
     64 N         -81.8960   27.3993  -74.8488 N.am      2 UNK        -0.4687 
     65 C         -82.0915   28.6288  -74.3459 C.2       1 UNK         0.5165 
     66 O         -81.7119   29.6630  -74.8962 O.2       1 UNK        -0.5079 
     67 H67       -86.3774   26.4758  -74.7732 H         1 UNK         0.0900 
     68 H68       -86.0079   26.1533  -73.0782 H         1 UNK         0.0900 
     69 H69       -87.1825   27.3999  -73.5022 H         1 UNK         0.0900 
     70 H70       -84.0431   27.0132  -72.4640 H         1 UNK         0.2959 
     71 H71       -83.2854   29.7246  -72.9479 H         1 UNK         0.1079 
     72 H72       -81.3785   27.5521  -71.9792 H         1 UNK         0.0837 
     73 H73       -82.6646   28.1126  -70.9496 H         1 UNK         0.0837 
     74 H74       -79.6575   29.8735  -69.2687 H         1 UNK         0.0685 
     75 H75       -80.6697   28.4519  -69.2773 H         1 UNK         0.0685 
     76 H76       -79.9806   26.4261  -70.5575 H         1 UNK         0.1434 
     77 H77       -76.0369   26.3155  -72.2124 H         1 UNK         0.1329 
     78 H78       -77.5415   29.9584  -70.5418 H         1 UNK         0.1335 
     79 H79       -74.9038   29.3059  -70.7377 H         1 UNK         0.0680 
     80 H80       -74.5621   28.1504  -72.0078 H         1 UNK         0.0680 
     81 H81       -73.6459   31.6878  -72.4956 H         1 UNK         0.1032 
     82 H82       -73.0601   30.0483  -72.5777 H         1 UNK         0.1032 
     83 H83       -74.0005   31.7029  -74.9633 H         1 UNK         0.0461 
     84 H84       -71.0418   30.2354  -75.8134 H         1 UNK         0.3453 
     85 H85       -70.0234   31.5737  -75.3459 H         1 UNK         0.3453 
     86 H86       -73.3558   28.8771  -74.8263 H         1 UNK         0.2984 
     87 H87       -74.5255   27.8802  -77.1263 H         1 UNK         0.0554 
     88 H88       -73.3447   27.3254  -79.2530 H         1 UNK         0.0847 
     89 H89       -72.3702   28.7863  -79.0958 H         1 UNK         0.0847 
     90 H90       -74.1090   28.9040  -79.3236 H         1 UNK         0.0847 
     91 H91       -72.9646   26.5364  -76.2803 H         1 UNK         0.3141 
     92 H92       -69.5209   26.3245  -76.4208 H         1 UNK         0.0743 
     93 H93       -70.9384   27.0349  -73.7903 H         1 UNK         0.0784 
     94 H94       -69.4058   26.1756  -73.9404 H         1 UNK         0.0784 
     95 H95       -69.5231   27.8554  -74.4355 H         1 UNK         0.0784 
     96 H96       -71.3129   24.8007  -74.8390 H         1 UNK         0.3213 
     97 H97       -72.7950   22.8462  -77.3486 H         1 UNK         0.0855 
     98 H98       -70.5116   22.0172  -75.4813 H         1 UNK         0.0814 
     99 H99       -70.5894   21.7513  -77.2140 H         1 UNK         0.0814 
    100 H100      -71.7313   20.9375  -76.1570 H         1 UNK         0.0814 
    101 H101      -74.0880   23.0647  -75.6147 H         1 UNK         0.3105 
    102 H102      -74.0016   22.5718  -72.4163 H         1 UNK         0.0547 
    103 H103      -72.9094   24.6614  -71.6307 H         1 UNK         0.0837 
    104 H104      -73.8831   25.6123  -72.7410 H         1 UNK         0.0837 
    105 H105      -74.6394   24.7301  -71.4035 H         1 UNK         0.0837 
    106 H106      -75.5765   24.4230  -74.1551 H         1 UNK         0.3020 
    107 H107      -77.5571   21.7776  -75.3493 H         1 UNK         0.1245 
    108 H108      -78.6600   22.2708  -73.0096 H         1 UNK         0.0781 
    109 H109      -79.5572   22.5737  -74.4596 H         1 UNK         0.0781 
    110 H110      -77.2617   24.2334  -71.7910 H         1 UNK         0.0836 
    111 H111      -78.8427   24.2442  -71.0475 H         1 UNK         0.0836 
    112 H112      -77.9037   24.5583  -75.6452 H         1 UNK         0.3022 
    113 H113      -75.2417   25.4819  -77.5898 H         1 UNK         0.0747 
    114 H114      -76.7211   25.9311  -79.5315 H         1 UNK         0.0793 
    115 H115      -76.3194   24.2233  -79.4673 H         1 UNK         0.0793 
    116 H116      -77.9052   24.7683  -78.9346 H         1 UNK         0.0793 
    117 H117      -77.8262   26.6777  -77.3490 H         1 UNK         0.3047 
    118 H118      -77.4586   28.0809  -74.1110 H         1 UNK         0.0822 
    119 H119      -77.5068   29.2797  -76.9303 H         1 UNK         0.0807 
    120 H120      -76.3207   29.6028  -75.6820 H         1 UNK         0.0807 
    121 H121      -77.9830   30.1045  -75.4459 H         1 UNK         0.0807 
    122 H122      -79.5490   27.4683  -74.3761 H         1 UNK         0.2946 
    123 H123      -81.8943   27.6761  -76.9045 H         1 UNK         0.1144 
    124 H124      -82.6027   25.3427  -76.4547 H         1 UNK         0.0793 
    125 H125      -81.0318   24.9684  -75.7454 H         1 UNK         0.0793 
    126 H126      -81.1635   25.3432  -77.4574 H         1 UNK         0.0793 
    127 H127      -82.2566   26.6137  -74.3268 H         1 UNK         0.2896 
@<TRIPOS>BOND
     1    1    2 1    
     2    1   67 1    
     3    1   68 1    
     4    1   69 1    
     5    2    3 2    
     6    2    4 am   BACKBONE|DICT|INTERRES
     7    4    5 1    
     8    4   70 1    
     9    5    6 1    
    10    5   65 1    
    11    5   71 1    
    12    6    7 1    
    13    6   72 1    
    14    6   73 1    
    15    7    8 1    
    16    8    9 1    
    17    8   74 1    
    18    8   75 1    
    19    9   10 ar   
    20    9   14 ar   
    21   10   11 ar   
    22   10   76 1    
    23   11   12 ar   
    24   11   48 1    
    25   12   13 ar   
    26   12   77 1    
    27   13   14 ar   
    28   13   15 1    
    29   14   78 1    
    30   15   16 1    
    31   15   79 1    
    32   15   80 1    
    33   16   17 1    
    34   17   18 1    
    35   17   81 1    
    36   17   82 1    
    37   18   19 1    
    38   18   22 1    
    39   18   83 1    
    40   19   20 am   BACKBONE|DICT|INTERRES
    41   19   21 2    
    42   20   84 1    
    43   20   85 1    
    44   22   23 am   BACKBONE|DICT|INTERRES
    45   22   86 1    
    46   23   24 2    
    47   23   25 1    
    48   25   26 1    
    49   25   27 1    
    50   25   87 1    
    51   26   88 1    
    52   26   89 1    
    53   26   90 1    
    54   27   28 am   BACKBONE|DICT|INTERRES
    55   27   91 1    
    56   28   29 2    
    57   28   30 1    
    58   30   31 1    
    59   30   32 1    
    60   30   92 1    
    61   31   93 1    
    62   31   94 1    
    63   31   95 1    
    64   32   33 am   BACKBONE|DICT|INTERRES
    65   32   96 1    
    66   33   34 2    
    67   33   35 1    
    68   35   36 1    
    69   35   37 1    
    70   35   97 1    
    71   36   98 1    
    72   36   99 1    
    73   36  100 1    
    74   37   38 am   BACKBONE|DICT|INTERRES
    75   37  101 1    
    76   38   39 2    
    77   38   40 1    
    78   40   41 1    
    79   40   42 1    
    80   40  102 1    
    81   41  103 1    
    82   41  104 1    
    83   41  105 1    
    84   42   43 am   BACKBONE|DICT|INTERRES
    85   42  106 1    
    86   43   44 2    
    87   43   45 1    
    88   45   46 1    
    89   45   49 1    
    90   45  107 1    
    91   46   47 1    
    92   46  108 1    
    93   46  109 1    
    94   47   48 1    
    95   48  110 1    
    96   48  111 1    
    97   49   50 am   BACKBONE|DICT|INTERRES
    98   49  112 1    
    99   50   51 2    
   100   50   52 1    
   101   52   53 1    
   102   52   54 1    
   103   52  113 1    
   104   53  114 1    
   105   53  115 1    
   106   53  116 1    
   107   54   55 am   BACKBONE|DICT|INTERRES
   108   54  117 1    
   109   55   56 2    
   110   55   57 1    
   111   57   58 1    
   112   57   59 1    
   113   57  118 1    
   114   58  119 1    
   115   58  120 1    
   116   58  121 1    
   117   59   60 am   BACKBONE|DICT|INTERRES
   118   59  122 1    
   119   60   61 2    
   120   60   62 1    
   121   62   63 1    
   122   62   64 1    
   123   62  123 1    
   124   63  124 1    
   125   63  125 1    
   126   63  126 1    
   127   64   65 am   BACKBONE|DICT|INTERRES
   128   64  127 1    
   129   65   66 2    
@<TRIPOS>SUBSTRUCTURE
     1 UNK         1 GROUP             0       ****    0 ROOT    
