@<TRIPOS>MOLECULE
3R135
127   129    1
SMALL
USER_CHARGES


@<TRIPOS>ATOM
      1 CA        -83.4414   24.2356  -69.3892 C.3       0 UNK        -0.1998 
      2 C         -82.2766   24.5469  -70.3170 C.2       0 UNK         0.4909 
      3 O         -81.2923   23.8084  -70.3256 O.2       0 UNK        -0.5240 
      4 N         -82.3934   25.6271  -71.1035 N.am      1 UNK        -0.4739 
      5 CA        -81.3902   26.1446  -72.0523 C.3       1 UNK         0.0864 
      6 C6        -80.0597   26.5781  -71.3707 C.3       11 UNK        -0.0881 
      7 S7        -80.3246   27.9854  -70.2353 S.3       11 UNK        -0.2682 
      8 C8        -78.7688   28.9289  -70.4201 C.3       11 UNK         0.0289 
      9 C9        -78.5712   29.6889  -71.7360 C.ar      11 UNK        -0.0687 
     10 C10       -79.4403   29.5763  -72.8289 C.ar      11 UNK        -0.0823 
     11 C11       -79.1681   30.2310  -74.0323 C.ar      11 UNK        -0.0830 
     12 C12       -78.0408   31.0507  -74.1336 C.ar      11 UNK        -0.1021 
     13 C13       -77.1642   31.1775  -73.0532 C.ar      11 UNK        -0.0753 
     14 C14       -77.4405   30.5024  -71.8599 C.ar      11 UNK        -0.0933 
     15 C15       -75.9000   32.0145  -73.1880 C.3       11 UNK         0.0166 
     16 S16       -74.5989   31.1227  -74.1016 S.3       11 UNK        -0.2615 
     17 C17       -74.2576   29.7156  -72.9864 C.3       11 UNK        -0.0865 
     18 CA        -72.7506   29.3718  -72.8827 C.3       10 UNK         0.0862 
     19 C         -72.4877   28.3340  -71.7491 C.2       10 UNK         0.5551 
     20 N         -71.8835   27.1799  -72.0091 N.am      10 UNK        -0.7319 
     21 O         -72.8282   28.5918  -70.5972 O.2       10 UNK        -0.5018 
     22 N         -72.1827   28.9973  -74.1880 N.am      10 UNK        -0.4509 
     23 C         -70.8842   29.1077  -74.4998 C.2       10 UNK         0.4899 
     24 O         -70.0497   29.6326  -73.7602 O.2       10 UNK        -0.4839 
     25 CA        -70.4405   28.5259  -75.8582 C.3       9 UNK         0.0222 
     26 CB        -68.9224   28.2557  -75.9243 C.3       9 UNK        -0.1966 
     27 N         -71.1908   27.3294  -76.2610 N.am      9 UNK        -0.4218 
     28 C         -71.3205   26.1776  -75.5802 C.2       9 UNK         0.5020 
     29 O         -70.7868   25.9731  -74.4889 O.2       9 UNK        -0.5274 
     30 CA        -72.2221   25.0834  -76.1850 C.3       8 UNK         0.0270 
     31 CB        -73.1518   24.4849  -75.1144 C.3       8 UNK        -0.1976 
     32 N         -73.0464   25.6102  -77.2736 N.am      8 UNK        -0.4313 
     33 C         -72.8533   25.3821  -78.5802 C.2       8 UNK         0.5041 
     34 O         -71.9997   24.6133  -79.0234 O.2       8 UNK        -0.5577 
     35 CA        -73.7420   26.1650  -79.5692 C.3       7 UNK         0.0284 
     36 CB        -74.9367   25.3031  -80.0096 C.3       7 UNK        -0.1958 
     37 N         -74.2393   27.4383  -79.0359 N.am      7 UNK        -0.4454 
     38 C         -73.4725   28.4674  -78.6464 C.2       7 UNK         0.5089 
     39 O         -72.2507   28.4962  -78.7864 O.2       7 UNK        -0.5125 
     40 CA        -74.1685   29.6191  -77.8972 C.3       6 UNK         0.0408 
     41 CB        -74.4440   30.7922  -78.8495 C.3       6 UNK        -0.1791 
     42 N         -75.4165   29.2339  -77.2251 N.am      6 UNK        -0.4762 
     43 C         -75.5346   28.3035  -76.2640 C.2       6 UNK         0.5007 
     44 O         -74.5691   27.6516  -75.8546 O.2       6 UNK        -0.5032 
     45 CA        -76.9499   28.0467  -75.6910 C.3       5 UNK         0.0783 
     46 C46       -78.0880   28.5245  -76.6422 C.3       11 UNK        -0.0857 
     47 S47       -79.7634   28.3354  -75.9460 S.3       11 UNK        -0.2512 
     48 C48       -80.0636   29.9896  -75.2367 C.3       11 UNK         0.0225 
     49 N         -77.0877   26.6343  -75.3203 N.am      5 UNK        -0.4615 
     50 C         -76.7817   26.1177  -74.1215 C.2       4 UNK         0.5053 
     51 O         -76.4208   26.7930  -73.1576 O.2       4 UNK        -0.5105 
     52 CA        -76.8838   24.5884  -73.9782 C.3       4 UNK         0.0263 
     53 CB        -77.2084   24.1390  -72.5415 C.3       4 UNK        -0.1981 
     54 N         -77.8816   24.0327  -74.8925 N.am      4 UNK        -0.4224 
     55 C         -77.6912   22.9872  -75.7088 C.2       3 UNK         0.4895 
     56 O         -76.6177   22.3905  -75.8063 O.2       3 UNK        -0.5091 
     57 CA        -78.8812   22.5421  -76.5879 C.3       3 UNK         0.0250 
     58 CB        -78.8839   21.0209  -76.8543 C.3       3 UNK        -0.1996 
     59 N         -80.1937   22.9945  -76.1048 N.am      3 UNK        -0.4254 
     60 C         -80.8012   22.6623  -74.9552 C.2       2 UNK         0.5004 
     61 O         -80.3525   21.8663  -74.1280 O.2       2 UNK        -0.5226 
     62 CA        -82.1361   23.3761  -74.6744 C.3       2 UNK         0.0269 
     63 CB        -83.2706   22.3580  -74.4686 C.3       2 UNK        -0.1926 
     64 N         -82.0779   24.2708  -73.5131 N.am      2 UNK        -0.4687 
     65 C         -81.1773   25.2424  -73.2926 C.2       1 UNK         0.5165 
     66 O         -80.2423   25.4786  -74.0585 O.2       1 UNK        -0.5079 
     67 H67       -84.2456   24.9651  -69.4834 H         1 UNK         0.0900 
     68 H68       -83.1044   24.2359  -68.3530 H         1 UNK         0.0900 
     69 H69       -83.8486   23.2504  -69.6148 H         1 UNK         0.0900 
     70 H70       -83.2371   26.1809  -71.0410 H         1 UNK         0.2959 
     71 H71       -81.8378   27.0460  -72.4738 H         1 UNK         0.1079 
     72 H72       -79.3118   26.8638  -72.1125 H         1 UNK         0.0837 
     73 H73       -79.6163   25.7556  -70.8094 H         1 UNK         0.0837 
     74 H74       -78.7191   29.6449  -69.5985 H         1 UNK         0.0685 
     75 H75       -77.9307   28.2439  -70.2818 H         1 UNK         0.0685 
     76 H76       -80.3157   28.9481  -72.7767 H         1 UNK         0.1434 
     77 H77       -77.8181   31.5542  -75.0645 H         1 UNK         0.1329 
     78 H78       -76.7581   30.5920  -71.0257 H         1 UNK         0.1335 
     79 H79       -75.5212   32.3084  -72.2078 H         1 UNK         0.0680 
     80 H80       -76.1308   32.9407  -73.7163 H         1 UNK         0.0680 
     81 H81       -74.6469   29.9574  -71.9968 H         1 UNK         0.1032 
     82 H82       -74.8247   28.8494  -73.3269 H         1 UNK         0.1032 
     83 H83       -72.2462   30.2833  -72.5560 H         1 UNK         0.0461 
     84 H84       -71.7224   26.5338  -71.2536 H         1 UNK         0.3453 
     85 H85       -71.5631   26.9457  -72.9426 H         1 UNK         0.3453 
     86 H86       -72.8157   28.5410  -74.8335 H         1 UNK         0.2984 
     87 H87       -70.6705   29.2916  -76.6002 H         1 UNK         0.0554 
     88 H88       -68.3523   29.1705  -75.7575 H         1 UNK         0.0847 
     89 H89       -68.6304   27.8691  -76.9006 H         1 UNK         0.0847 
     90 H90       -68.6076   27.5341  -75.1695 H         1 UNK         0.0847 
     91 H91       -71.6574   27.4091  -77.1581 H         1 UNK         0.3141 
     92 H92       -71.5666   24.2911  -76.5514 H         1 UNK         0.0743 
     93 H93       -73.7572   25.2564  -74.6368 H         1 UNK         0.0784 
     94 H94       -73.8245   23.7414  -75.5428 H         1 UNK         0.0784 
     95 H95       -72.5800   23.9882  -74.3295 H         1 UNK         0.0784 
     96 H96       -73.7527   26.2833  -76.9878 H         1 UNK         0.3213 
     97 H97       -73.1334   26.3884  -80.4482 H         1 UNK         0.0855 
     98 H98       -74.5980   24.3594  -80.4398 H         1 UNK         0.0814 
     99 H99       -75.5325   25.8072  -80.7707 H         1 UNK         0.0814 
    100 H100      -75.5923   25.0612  -79.1720 H         1 UNK         0.0814 
    101 H101      -75.2350   27.5126  -78.8894 H         1 UNK         0.3105 
    102 H102      -73.4781   29.9641  -77.1244 H         1 UNK         0.0547 
    103 H103      -73.5271   31.1169  -79.3437 H         1 UNK         0.0837 
    104 H104      -75.1563   30.5224  -79.6300 H         1 UNK         0.0837 
    105 H105      -74.8409   31.6542  -78.3129 H         1 UNK         0.0837 
    106 H106      -76.2438   29.7362  -77.5126 H         1 UNK         0.3020 
    107 H107      -77.0012   28.6429  -74.7794 H         1 UNK         0.1245 
    108 H108      -78.0563   27.9679  -77.5807 H         1 UNK         0.0781 
    109 H109      -77.9697   29.5759  -76.9078 H         1 UNK         0.0781 
    110 H110      -81.1089   30.0612  -74.9328 H         1 UNK         0.0836 
    111 H111      -79.9142   30.7550  -75.9998 H         1 UNK         0.0836 
    112 H112      -77.3712   26.0035  -76.0539 H         1 UNK         0.3022 
    113 H113      -75.8950   24.2033  -74.2281 H         1 UNK         0.0747 
    114 H114      -76.4799   24.5256  -71.8278 H         1 UNK         0.0793 
    115 H115      -78.1935   24.4833  -72.2299 H         1 UNK         0.0793 
    116 H116      -77.1965   23.0522  -72.4582 H         1 UNK         0.0793 
    117 H117      -78.7985   24.4734  -74.8449 H         1 UNK         0.3047 
    118 H118      -78.7328   23.0374  -77.5486 H         1 UNK         0.0822 
    119 H119      -78.9471   20.4474  -75.9291 H         1 UNK         0.0807 
    120 H120      -77.9716   20.7101  -77.3651 H         1 UNK         0.0807 
    121 H121      -79.7215   20.7297  -77.4881 H         1 UNK         0.0807 
    122 H122      -80.6484   23.6788  -76.6941 H         1 UNK         0.2946 
    123 H123      -82.3923   23.9917  -75.5392 H         1 UNK         0.1144 
    124 H124      -83.3455   21.6796  -75.3197 H         1 UNK         0.0793 
    125 H125      -83.1077   21.7476  -73.5792 H         1 UNK         0.0793 
    126 H126      -84.2365   22.8527  -74.3645 H         1 UNK         0.0793 
    127 H127      -82.7947   24.1438  -72.8142 H         1 UNK         0.2896 
@<TRIPOS>BOND
     1    1    2 1    
     2    1   67 1    
     3    1   68 1    
     4    1   69 1    
     5    2    3 2    
     6    2    4 am   BACKBONE|DICT|INTERRES
     7    4    5 1    
     8    4   70 1    
     9    5    6 1    
    10    5   65 1    
    11    5   71 1    
    12    6    7 1    
    13    6   72 1    
    14    6   73 1    
    15    7    8 1    
    16    8    9 1    
    17    8   74 1    
    18    8   75 1    
    19    9   10 ar   
    20    9   14 ar   
    21   10   11 ar   
    22   10   76 1    
    23   11   12 ar   
    24   11   48 1    
    25   12   13 ar   
    26   12   77 1    
    27   13   14 ar   
    28   13   15 1    
    29   14   78 1    
    30   15   16 1    
    31   15   79 1    
    32   15   80 1    
    33   16   17 1    
    34   17   18 1    
    35   17   81 1    
    36   17   82 1    
    37   18   19 1    
    38   18   22 1    
    39   18   83 1    
    40   19   20 am   BACKBONE|DICT|INTERRES
    41   19   21 2    
    42   20   84 1    
    43   20   85 1    
    44   22   23 am   BACKBONE|DICT|INTERRES
    45   22   86 1    
    46   23   24 2    
    47   23   25 1    
    48   25   26 1    
    49   25   27 1    
    50   25   87 1    
    51   26   88 1    
    52   26   89 1    
    53   26   90 1    
    54   27   28 am   BACKBONE|DICT|INTERRES
    55   27   91 1    
    56   28   29 2    
    57   28   30 1    
    58   30   31 1    
    59   30   32 1    
    60   30   92 1    
    61   31   93 1    
    62   31   94 1    
    63   31   95 1    
    64   32   33 am   BACKBONE|DICT|INTERRES
    65   32   96 1    
    66   33   34 2    
    67   33   35 1    
    68   35   36 1    
    69   35   37 1    
    70   35   97 1    
    71   36   98 1    
    72   36   99 1    
    73   36  100 1    
    74   37   38 am   BACKBONE|DICT|INTERRES
    75   37  101 1    
    76   38   39 2    
    77   38   40 1    
    78   40   41 1    
    79   40   42 1    
    80   40  102 1    
    81   41  103 1    
    82   41  104 1    
    83   41  105 1    
    84   42   43 am   BACKBONE|DICT|INTERRES
    85   42  106 1    
    86   43   44 2    
    87   43   45 1    
    88   45   46 1    
    89   45   49 1    
    90   45  107 1    
    91   46   47 1    
    92   46  108 1    
    93   46  109 1    
    94   47   48 1    
    95   48  110 1    
    96   48  111 1    
    97   49   50 am   BACKBONE|DICT|INTERRES
    98   49  112 1    
    99   50   51 2    
   100   50   52 1    
   101   52   53 1    
   102   52   54 1    
   103   52  113 1    
   104   53  114 1    
   105   53  115 1    
   106   53  116 1    
   107   54   55 am   BACKBONE|DICT|INTERRES
   108   54  117 1    
   109   55   56 2    
   110   55   57 1    
   111   57   58 1    
   112   57   59 1    
   113   57  118 1    
   114   58  119 1    
   115   58  120 1    
   116   58  121 1    
   117   59   60 am   BACKBONE|DICT|INTERRES
   118   59  122 1    
   119   60   61 2    
   120   60   62 1    
   121   62   63 1    
   122   62   64 1    
   123   62  123 1    
   124   63  124 1    
   125   63  125 1    
   126   63  126 1    
   127   64   65 am   BACKBONE|DICT|INTERRES
   128   64  127 1    
   129   65   66 2    
@<TRIPOS>SUBSTRUCTURE
     1 UNK         1 GROUP             0       ****    0 ROOT    
