@<TRIPOS>MOLECULE
3R135
127   129    1
SMALL
USER_CHARGES


@<TRIPOS>ATOM
      1 CA        -83.1172   29.4592  -72.1750 C.3       0 UNK        -0.1998 
      2 C         -82.3912   29.5036  -73.5111 C.2       0 UNK         0.4909 
      3 O         -83.0048   29.8155  -74.5320 O.2       0 UNK        -0.5240 
      4 N         -81.0878   29.1953  -73.5101 N.am      1 UNK        -0.4739 
      5 CA        -80.2312   29.1710  -74.7039 C.3       1 UNK         0.0864 
      6 C6        -78.7277   29.1774  -74.3385 C.3       11 UNK        -0.0881 
      7 S7        -78.2056   30.6943  -73.4656 S.3       11 UNK        -0.2682 
      8 C8        -78.3158   30.2268  -71.7055 C.3       11 UNK         0.0289 
      9 C9        -77.4097   29.0560  -71.3539 C.ar      11 UNK        -0.0687 
     10 C10       -77.9531   27.8031  -71.0555 C.ar      11 UNK        -0.0823 
     11 C11       -77.1214   26.7249  -70.7423 C.ar      11 UNK        -0.0830 
     12 C12       -75.7330   26.9096  -70.7336 C.ar      11 UNK        -0.1021 
     13 C13       -75.1750   28.1632  -71.0157 C.ar      11 UNK        -0.0753 
     14 C14       -76.0251   29.2327  -71.3132 C.ar      11 UNK        -0.0933 
     15 C15       -73.6630   28.3662  -70.9400 C.3       11 UNK         0.0166 
     16 S16       -72.9002   28.8316  -72.5346 S.3       11 UNK        -0.2615 
     17 C17       -73.0755   30.6503  -72.5422 C.3       11 UNK        -0.0865 
     18 CA        -73.9230   31.1562  -73.7504 C.3       10 UNK         0.0862 
     19 C         -74.6291   32.5243  -73.4851 C.2       10 UNK         0.5551 
     20 N         -74.9103   33.3264  -74.5053 N.am      10 UNK        -0.7319 
     21 O         -74.9562   32.8555  -72.3481 O.2       10 UNK        -0.5018 
     22 N         -73.1882   31.0827  -75.0306 N.am      10 UNK        -0.4509 
     23 C         -72.1286   31.8370  -75.3696 C.2       10 UNK         0.4899 
     24 O         -71.6042   32.6551  -74.6119 O.2       10 UNK        -0.4839 
     25 CA        -71.5858   31.6875  -76.8074 C.3       9 UNK         0.0222 
     26 CB        -70.1384   32.2032  -76.9661 C.3       9 UNK        -0.1966 
     27 N         -71.7319   30.3323  -77.3481 N.am      9 UNK        -0.4218 
     28 C         -71.1444   29.2134  -76.9027 C.2       9 UNK         0.5020 
     29 O         -70.3097   29.1695  -75.9966 O.2       9 UNK        -0.5274 
     30 CA        -71.6201   27.9071  -77.5603 C.3       8 UNK         0.0270 
     31 CB        -70.4382   26.9992  -77.9422 C.3       8 UNK        -0.1976 
     32 N         -72.5185   27.1781  -76.6662 N.am      8 UNK        -0.4313 
     33 C         -73.6916   27.6200  -76.1984 C.2       8 UNK         0.5041 
     34 O         -74.2054   28.6866  -76.5477 O.2       8 UNK        -0.5577 
     35 CA        -74.3991   26.7178  -75.1694 C.3       7 UNK         0.0284 
     36 CB        -75.7092   27.3372  -74.6478 C.3       7 UNK        -0.1958 
     37 N         -74.6799   25.3679  -75.6660 N.am      7 UNK        -0.4454 
     38 C         -73.7906   24.3789  -75.8443 C.2       7 UNK         0.5089 
     39 O         -72.5728   24.5215  -75.7153 O.2       7 UNK        -0.5125 
     40 CA        -74.3889   22.9937  -76.1749 C.3       6 UNK         0.0408 
     41 CB        -73.3522   21.8523  -76.1204 C.3       6 UNK        -0.1791 
     42 N         -75.5515   22.7031  -75.3238 N.am      6 UNK        -0.4762 
     43 C         -75.5683   22.6746  -73.9787 C.2       6 UNK         0.5007 
     44 O         -74.5567   22.6414  -73.2773 O.2       6 UNK        -0.5032 
     45 CA        -76.9411   22.8032  -73.2890 C.3       5 UNK         0.0783 
     46 C46       -77.1481   24.2887  -72.9096 C.3       11 UNK        -0.0857 
     47 S47       -78.5606   24.5758  -71.8000 S.3       11 UNK        -0.2512 
     48 C48       -77.7302   25.3718  -70.3833 C.3       11 UNK         0.0225 
     49 N         -78.0332   22.3028  -74.1284 N.am      5 UNK        -0.4615 
     50 C         -78.2580   21.0054  -74.3779 C.2       4 UNK         0.5053 
     51 O         -77.6250   20.0923  -73.8473 O.2       4 UNK        -0.5105 
     52 CA        -79.3572   20.6557  -75.3996 C.3       4 UNK         0.0263 
     53 CB        -80.6578   20.2754  -74.6735 C.3       4 UNK        -0.1981 
     54 N         -79.6446   21.7205  -76.3658 N.am      4 UNK        -0.4224 
     55 C         -78.7764   22.2361  -77.2495 C.2       3 UNK         0.4895 
     56 O         -77.6146   21.8506  -77.3763 O.2       3 UNK        -0.5091 
     57 CA        -79.2723   23.4188  -78.1012 C.3       3 UNK         0.0250 
     58 CB        -79.7957   22.9220  -79.4582 C.3       3 UNK        -0.1996 
     59 N         -80.3082   24.2241  -77.4422 N.am      3 UNK        -0.4254 
     60 C         -80.1259   24.9153  -76.3084 C.2       2 UNK         0.5004 
     61 O         -79.0608   24.9426  -75.6876 O.2       2 UNK        -0.5226 
     62 CA        -81.3637   25.6252  -75.7372 C.3       2 UNK         0.0269 
     63 CB        -82.0992   24.6940  -74.7589 C.3       2 UNK        -0.1926 
     64 N         -81.0188   26.8631  -75.0381 N.am      2 UNK        -0.4687 
     65 C         -80.5507   27.9742  -75.6254 C.2       1 UNK         0.5165 
     66 O         -80.3867   28.0859  -76.8415 O.2       1 UNK        -0.5079 
     67 H67       -83.5403   30.4369  -71.9458 H         1 UNK         0.0900 
     68 H68       -82.4532   29.1778  -71.3578 H         1 UNK         0.0900 
     69 H69       -83.9314   28.7362  -72.2147 H         1 UNK         0.0900 
     70 H70       -80.6347   28.9589  -72.6410 H         1 UNK         0.2959 
     71 H71       -80.4406   30.0741  -75.2822 H         1 UNK         0.1079 
     72 H72       -78.1264   29.1268  -75.2483 H         1 UNK         0.0837 
     73 H73       -78.4621   28.2915  -73.7608 H         1 UNK         0.0837 
     74 H74       -78.0315   31.0892  -71.1008 H         1 UNK         0.0685 
     75 H75       -79.3525   30.0097  -71.4479 H         1 UNK         0.0685 
     76 H76       -79.0247   27.6602  -71.0664 H         1 UNK         0.1434 
     77 H77       -75.0855   26.0793  -70.4869 H         1 UNK         0.1329 
     78 H78       -75.6191   30.2109  -71.5188 H         1 UNK         0.1335 
     79 H79       -73.4321   29.1137  -70.1801 H         1 UNK         0.0680 
     80 H80       -73.1821   27.4467  -70.6031 H         1 UNK         0.0680 
     81 H81       -72.0800   31.0947  -72.5520 H         1 UNK         0.1032 
     82 H82       -73.5041   30.9592  -71.5891 H         1 UNK         0.1032 
     83 H83       -74.7614   30.4705  -73.8668 H         1 UNK         0.0461 
     84 H84       -74.6674   33.0609  -75.4458 H         1 UNK         0.3453 
     85 H85       -75.3771   34.2021  -74.3304 H         1 UNK         0.3453 
     86 H86       -73.5470   30.4072  -75.6994 H         1 UNK         0.2984 
     87 H87       -72.2214   32.3213  -77.4272 H         1 UNK         0.0554 
     88 H88       -69.7859   32.0913  -77.9913 H         1 UNK         0.0847 
     89 H89       -69.4444   31.6743  -76.3123 H         1 UNK         0.0847 
     90 H90       -70.0713   33.2630  -76.7169 H         1 UNK         0.0847 
     91 H91       -72.4407   30.2289  -78.0622 H         1 UNK         0.3141 
     92 H92       -72.1717   28.1449  -78.4722 H         1 UNK         0.0743 
     93 H93       -69.8720   26.6808  -77.0657 H         1 UNK         0.0784 
     94 H94       -70.7781   26.1040  -78.4633 H         1 UNK         0.0784 
     95 H95       -69.7466   27.5190  -78.6066 H         1 UNK         0.0784 
     96 H96       -72.2016   26.2727  -76.3270 H         1 UNK         0.3213 
     97 H97       -73.7200   26.6260  -74.3196 H         1 UNK         0.0855 
     98 H98       -75.5663   28.3728  -74.3411 H         1 UNK         0.0814 
     99 H99       -76.0752   26.8124  -73.7680 H         1 UNK         0.0814 
    100 H100      -76.4917   27.3246  -75.4067 H         1 UNK         0.0814 
    101 H101      -75.6523   25.1550  -75.8336 H         1 UNK         0.3105 
    102 H102      -74.7626   23.0527  -77.1981 H         1 UNK         0.0547 
    103 H103      -72.5547   22.0179  -76.8456 H         1 UNK         0.0837 
    104 H104      -72.8835   21.7713  -75.1394 H         1 UNK         0.0837 
    105 H105      -73.8092   20.8911  -76.3548 H         1 UNK         0.0837 
    106 H106      -76.4374   22.6396  -75.8138 H         1 UNK         0.3020 
    107 H107      -76.9006   22.2073  -72.3742 H         1 UNK         0.1245 
    108 H108      -77.3021   24.8910  -73.8046 H         1 UNK         0.0781 
    109 H109      -76.2491   24.6873  -72.4362 H         1 UNK         0.0781 
    110 H110      -76.9711   24.6956  -69.9869 H         1 UNK         0.0836 
    111 H111      -78.4585   25.5112  -69.5832 H         1 UNK         0.0836 
    112 H112      -78.5949   23.0059  -74.5927 H         1 UNK         0.3022 
    113 H113      -79.0099   19.7870  -75.9627 H         1 UNK         0.0747 
    114 H114      -81.4203   19.9347  -75.3743 H         1 UNK         0.0793 
    115 H115      -80.4866   19.4632  -73.9653 H         1 UNK         0.0793 
    116 H116      -81.0671   21.1163  -74.1116 H         1 UNK         0.0793 
    117 H117      -80.5759   22.1082  -76.3429 H         1 UNK         0.3047 
    118 H118      -78.4138   24.0693  -78.2825 H         1 UNK         0.0822 
    119 H119      -80.0657   23.7540  -80.1089 H         1 UNK         0.0807 
    120 H120      -80.6730   22.2837  -79.3455 H         1 UNK         0.0807 
    121 H121      -79.0346   22.3399  -79.9802 H         1 UNK         0.0807 
    122 H122      -81.2152   24.2425  -77.8870 H         1 UNK         0.2946 
    123 H123      -82.0359   25.8796  -76.5600 H         1 UNK         0.1144 
    124 H124      -82.4147   23.7736  -75.2520 H         1 UNK         0.0793 
    125 H125      -82.9962   25.1670  -74.3587 H         1 UNK         0.0793 
    126 H126      -81.4644   24.4120  -73.9171 H         1 UNK         0.0793 
    127 H127      -81.1005   26.8544  -74.0325 H         1 UNK         0.2896 
@<TRIPOS>BOND
     1    1    2 1    
     2    1   67 1    
     3    1   68 1    
     4    1   69 1    
     5    2    3 2    
     6    2    4 am   BACKBONE|DICT|INTERRES
     7    4    5 1    
     8    4   70 1    
     9    5    6 1    
    10    5   65 1    
    11    5   71 1    
    12    6    7 1    
    13    6   72 1    
    14    6   73 1    
    15    7    8 1    
    16    8    9 1    
    17    8   74 1    
    18    8   75 1    
    19    9   10 ar   
    20    9   14 ar   
    21   10   11 ar   
    22   10   76 1    
    23   11   12 ar   
    24   11   48 1    
    25   12   13 ar   
    26   12   77 1    
    27   13   14 ar   
    28   13   15 1    
    29   14   78 1    
    30   15   16 1    
    31   15   79 1    
    32   15   80 1    
    33   16   17 1    
    34   17   18 1    
    35   17   81 1    
    36   17   82 1    
    37   18   19 1    
    38   18   22 1    
    39   18   83 1    
    40   19   20 am   BACKBONE|DICT|INTERRES
    41   19   21 2    
    42   20   84 1    
    43   20   85 1    
    44   22   23 am   BACKBONE|DICT|INTERRES
    45   22   86 1    
    46   23   24 2    
    47   23   25 1    
    48   25   26 1    
    49   25   27 1    
    50   25   87 1    
    51   26   88 1    
    52   26   89 1    
    53   26   90 1    
    54   27   28 am   BACKBONE|DICT|INTERRES
    55   27   91 1    
    56   28   29 2    
    57   28   30 1    
    58   30   31 1    
    59   30   32 1    
    60   30   92 1    
    61   31   93 1    
    62   31   94 1    
    63   31   95 1    
    64   32   33 am   BACKBONE|DICT|INTERRES
    65   32   96 1    
    66   33   34 2    
    67   33   35 1    
    68   35   36 1    
    69   35   37 1    
    70   35   97 1    
    71   36   98 1    
    72   36   99 1    
    73   36  100 1    
    74   37   38 am   BACKBONE|DICT|INTERRES
    75   37  101 1    
    76   38   39 2    
    77   38   40 1    
    78   40   41 1    
    79   40   42 1    
    80   40  102 1    
    81   41  103 1    
    82   41  104 1    
    83   41  105 1    
    84   42   43 am   BACKBONE|DICT|INTERRES
    85   42  106 1    
    86   43   44 2    
    87   43   45 1    
    88   45   46 1    
    89   45   49 1    
    90   45  107 1    
    91   46   47 1    
    92   46  108 1    
    93   46  109 1    
    94   47   48 1    
    95   48  110 1    
    96   48  111 1    
    97   49   50 am   BACKBONE|DICT|INTERRES
    98   49  112 1    
    99   50   51 2    
   100   50   52 1    
   101   52   53 1    
   102   52   54 1    
   103   52  113 1    
   104   53  114 1    
   105   53  115 1    
   106   53  116 1    
   107   54   55 am   BACKBONE|DICT|INTERRES
   108   54  117 1    
   109   55   56 2    
   110   55   57 1    
   111   57   58 1    
   112   57   59 1    
   113   57  118 1    
   114   58  119 1    
   115   58  120 1    
   116   58  121 1    
   117   59   60 am   BACKBONE|DICT|INTERRES
   118   59  122 1    
   119   60   61 2    
   120   60   62 1    
   121   62   63 1    
   122   62   64 1    
   123   62  123 1    
   124   63  124 1    
   125   63  125 1    
   126   63  126 1    
   127   64   65 am   BACKBONE|DICT|INTERRES
   128   64  127 1    
   129   65   66 2    
@<TRIPOS>SUBSTRUCTURE
     1 UNK         1 GROUP             0       ****    0 ROOT    
