@<TRIPOS>MOLECULE
3R135
127   129    1
SMALL
USER_CHARGES


@<TRIPOS>ATOM
      1 CA        -84.7609   30.0496  -73.1431 C.3       0 UNK        -0.1998 
      2 C         -83.8001   28.8734  -73.0500 C.2       0 UNK         0.4909 
      3 O         -84.2269   27.7646  -72.7257 O.2       0 UNK        -0.5240 
      4 N         -82.5119   29.1150  -73.3315 N.am      1 UNK        -0.4739 
      5 CA        -81.4170   28.1340  -73.3321 C.3       1 UNK         0.0864 
      6 C6        -81.1105   27.5332  -71.9264 C.3       11 UNK        -0.0881 
      7 S7        -80.8515   28.7459  -70.5811 S.3       11 UNK        -0.2682 
      8 C8        -79.6772   29.9594  -71.2834 C.3       11 UNK         0.0289 
      9 C9        -78.3588   29.3759  -71.7913 C.ar      11 UNK        -0.0687 
     10 C10       -77.7690   28.2506  -71.2015 C.ar      11 UNK        -0.0823 
     11 C11       -76.5686   27.7307  -71.6957 C.ar      11 UNK        -0.0830 
     12 C12       -75.9307   28.3733  -72.7598 C.ar      11 UNK        -0.1021 
     13 C13       -76.4810   29.5245  -73.3284 C.ar      11 UNK        -0.0753 
     14 C14       -77.7024   30.0088  -72.8522 C.ar      11 UNK        -0.0933 
     15 C15       -75.7472   30.2508  -74.4478 C.3       11 UNK         0.0166 
     16 S16       -75.0101   31.8221  -73.8874 S.3       11 UNK        -0.2615 
     17 C17       -73.8201   31.2783  -72.6090 C.3       11 UNK        -0.0865 
     18 CA        -72.3371   31.4833  -73.0131 C.3       10 UNK         0.0862 
     19 C         -71.3984   31.1959  -71.8030 C.2       10 UNK         0.5551 
     20 N         -70.5384   30.1853  -71.8489 N.am      10 UNK        -0.7319 
     21 O         -71.4520   31.9091  -70.8042 O.2       10 UNK        -0.5018 
     22 N         -72.0017   30.7470  -74.2431 N.am      10 UNK        -0.4509 
     23 C         -70.9319   30.9673  -75.0139 C.2       10 UNK         0.4899 
     24 O         -70.0934   31.8406  -74.7850 O.2       10 UNK        -0.4839 
     25 CA        -70.7740   30.0437  -76.2392 C.3       9 UNK         0.0222 
     26 CB        -69.5761   30.4364  -77.1249 C.3       9 UNK        -0.1966 
     27 N         -70.6478   28.6282  -75.8722 N.am      9 UNK        -0.4218 
     28 C         -71.6539   27.8378  -75.4783 C.2       9 UNK         0.5020 
     29 O         -72.8072   28.2362  -75.3004 O.2       9 UNK        -0.5274 
     30 CA        -71.3209   26.3631  -75.2172 C.3       8 UNK         0.0270 
     31 CB        -71.3677   26.0549  -73.7115 C.3       8 UNK        -0.1976 
     32 N         -72.3083   25.5431  -75.9143 N.am      8 UNK        -0.4313 
     33 C         -72.1965   25.1532  -77.1935 C.2       8 UNK         0.5041 
     34 O         -71.1611   25.2647  -77.8518 O.2       8 UNK        -0.5577 
     35 CA        -73.4519   24.5683  -77.8728 C.3       7 UNK         0.0284 
     36 CB        -73.4656   23.0356  -77.7595 C.3       7 UNK        -0.1958 
     37 N         -74.6966   25.0994  -77.3178 N.am      7 UNK        -0.4454 
     38 C         -75.0717   26.3854  -77.3429 C.2       7 UNK         0.5089 
     39 O         -74.5211   27.2403  -78.0374 O.2       7 UNK        -0.5125 
     40 CA        -76.2322   26.8009  -76.4174 C.3       6 UNK         0.0408 
     41 CB        -77.4449   27.2747  -77.2327 C.3       6 UNK        -0.1791 
     42 N         -76.6707   25.7730  -75.4665 N.am      6 UNK        -0.4762 
     43 C         -75.9461   25.2412  -74.4695 C.2       6 UNK         0.5007 
     44 O         -74.7593   25.4972  -74.2689 O.2       6 UNK        -0.5032 
     45 CA        -76.6665   24.2008  -73.5950 C.3       5 UNK         0.0783 
     46 C46       -77.6967   24.8692  -72.6432 C.3       11 UNK        -0.0857 
     47 S47       -77.0792   25.0714  -70.9395 S.3       11 UNK        -0.2512 
     48 C48       -75.9386   26.4915  -71.0706 C.3       11 UNK         0.0225 
     49 N         -77.2934   23.1997  -74.4587 N.am      5 UNK        -0.4615 
     50 C         -76.6587   22.1522  -75.0005 C.2       4 UNK         0.5053 
     51 O         -75.4857   21.8669  -74.7623 O.2       4 UNK        -0.5105 
     52 CA        -77.4607   21.2747  -75.9795 C.3       4 UNK         0.0263 
     53 CB        -78.0681   20.0697  -75.2437 C.3       4 UNK        -0.1981 
     54 N         -78.5268   22.0054  -76.6704 N.am      4 UNK        -0.4224 
     55 C         -78.3221   22.9513  -77.5984 C.2       3 UNK         0.4895 
     56 O         -77.2105   23.2674  -78.0208 O.2       3 UNK        -0.5091 
     57 CA        -79.5660   23.6988  -78.1136 C.3       3 UNK         0.0250 
     58 CB        -80.1624   22.9712  -79.3291 C.3       3 UNK        -0.1996 
     59 N         -80.6142   23.9054  -77.1039 N.am      3 UNK        -0.4254 
     60 C         -80.4478   24.5460  -75.9381 C.2       2 UNK         0.5004 
     61 O         -79.3634   24.9803  -75.5440 O.2       2 UNK        -0.5226 
     62 CA        -81.6809   24.6578  -75.0287 C.3       2 UNK         0.0269 
     63 CB        -81.8589   23.3622  -74.2196 C.3       2 UNK        -0.1926 
     64 N         -81.5635   25.7804  -74.0948 N.am      2 UNK        -0.4687 
     65 C         -81.6409   27.0745  -74.4383 C.2       1 UNK         0.5165 
     66 O         -81.8823   27.4542  -75.5871 O.2       1 UNK        -0.5079 
     67 H67       -85.5337   29.8450  -73.8836 H         1 UNK         0.0900 
     68 H68       -84.2531   30.9708  -73.4282 H         1 UNK         0.0900 
     69 H69       -85.2453   30.2142  -72.1809 H         1 UNK         0.0900 
     70 H70       -82.2479   30.0451  -73.6240 H         1 UNK         0.2959 
     71 H71       -80.5275   28.6749  -73.6566 H         1 UNK         0.1079 
     72 H72       -80.2182   26.9064  -71.9718 H         1 UNK         0.0837 
     73 H73       -81.9236   26.8802  -71.6049 H         1 UNK         0.0837 
     74 H74       -79.4468   30.6942  -70.5112 H         1 UNK         0.0685 
     75 H75       -80.1812   30.5080  -72.0800 H         1 UNK         0.0685 
     76 H76       -78.2480   27.7637  -70.3637 H         1 UNK         0.1434 
     77 H77       -74.9929   27.9880  -73.1389 H         1 UNK         0.1329 
     78 H78       -78.1290   30.8973  -73.2978 H         1 UNK         0.1335 
     79 H79       -74.9626   29.6242  -74.8705 H         1 UNK         0.0680 
     80 H80       -76.4441   30.4559  -75.2616 H         1 UNK         0.0680 
     81 H81       -73.9906   30.2342  -72.3484 H         1 UNK         0.1032 
     82 H82       -74.0484   31.8465  -71.7051 H         1 UNK         0.1032 
     83 H83       -72.2079   32.5440  -73.2375 H         1 UNK         0.0461 
     84 H84       -70.4802   29.6054  -72.6692 H         1 UNK         0.3453 
     85 H85       -69.9346   30.0132  -71.0606 H         1 UNK         0.3453 
     86 H86       -72.6082   29.9716  -74.4956 H         1 UNK         0.2984 
     87 H87       -71.6772   30.1610  -76.8422 H         1 UNK         0.0554 
     88 H88       -69.5264   29.8200  -78.0227 H         1 UNK         0.0847 
     89 H89       -68.6286   30.3350  -76.5941 H         1 UNK         0.0847 
     90 H90       -69.6561   31.4737  -77.4531 H         1 UNK         0.0847 
     91 H91       -69.7249   28.2263  -75.9579 H         1 UNK         0.3141 
     92 H92       -70.3187   26.1362  -75.5872 H         1 UNK         0.0743 
     93 H93       -72.3388   26.2980  -73.2776 H         1 UNK         0.0784 
     94 H94       -71.1701   25.0007  -73.5169 H         1 UNK         0.0784 
     95 H95       -70.6163   26.6323  -73.1715 H         1 UNK         0.0784 
     96 H96       -73.2162   25.4779  -75.4591 H         1 UNK         0.3213 
     97 H97       -73.4152   24.8393  -78.9299 H         1 UNK         0.0855 
     98 H98       -73.5134   22.7081  -76.7199 H         1 UNK         0.0814 
     99 H99       -72.5644   22.6042  -78.1973 H         1 UNK         0.0814 
    100 H100      -74.3193   22.6065  -78.2850 H         1 UNK         0.0814 
    101 H101      -75.2625   24.4629  -76.7749 H         1 UNK         0.3105 
    102 H102      -75.8709   27.6437  -75.8277 H         1 UNK         0.0547 
    103 H103      -77.1758   28.1021  -77.8904 H         1 UNK         0.0837 
    104 H104      -77.8402   26.4756  -77.8586 H         1 UNK         0.0837 
    105 H105      -78.2492   27.6240  -76.5846 H         1 UNK         0.0837 
    106 H106      -77.6454   25.4833  -75.5469 H         1 UNK         0.3020 
    107 H107      -75.9051   23.6957  -72.9955 H         1 UNK         0.1245 
    108 H108      -78.0704   25.8224  -73.0231 H         1 UNK         0.0781 
    109 H109      -78.5856   24.2420  -72.5577 H         1 UNK         0.0781 
    110 H110      -75.5853   26.7475  -70.0710 H         1 UNK         0.0836 
    111 H111      -75.0561   26.1796  -71.6310 H         1 UNK         0.0836 
    112 H112      -78.2320   23.4157  -74.7700 H         1 UNK         0.3022 
    113 H113      -76.7626   20.9010  -76.7320 H         1 UNK         0.0747 
    114 H114      -78.5754   19.3965  -75.9351 H         1 UNK         0.0793 
    115 H115      -77.2933   19.4897  -74.7401 H         1 UNK         0.0793 
    116 H116      -78.7881   20.3792  -74.4849 H         1 UNK         0.0793 
    117 H117      -79.4762   21.8028  -76.3937 H         1 UNK         0.3047 
    118 H118      -79.2359   24.6855  -78.4419 H         1 UNK         0.0822 
    119 H119      -80.9746   23.5444  -79.7766 H         1 UNK         0.0807 
    120 H120      -80.5514   21.9877  -79.0623 H         1 UNK         0.0807 
    121 H121      -79.4087   22.8240  -80.1043 H         1 UNK         0.0807 
    122 H122      -81.5342   23.5605  -77.3393 H         1 UNK         0.2946 
    123 H123      -82.5634   24.8179  -75.6526 H         1 UNK         0.1144 
    124 H124      -82.7392   23.4138  -73.5783 H         1 UNK         0.0793 
    125 H125      -80.9946   23.1581  -73.5859 H         1 UNK         0.0793 
    126 H126      -81.9924   22.5013  -74.8761 H         1 UNK         0.0793 
    127 H127      -81.3544   25.5454  -73.1367 H         1 UNK         0.2896 
@<TRIPOS>BOND
     1    1    2 1    
     2    1   67 1    
     3    1   68 1    
     4    1   69 1    
     5    2    3 2    
     6    2    4 am   BACKBONE|DICT|INTERRES
     7    4    5 1    
     8    4   70 1    
     9    5    6 1    
    10    5   65 1    
    11    5   71 1    
    12    6    7 1    
    13    6   72 1    
    14    6   73 1    
    15    7    8 1    
    16    8    9 1    
    17    8   74 1    
    18    8   75 1    
    19    9   10 ar   
    20    9   14 ar   
    21   10   11 ar   
    22   10   76 1    
    23   11   12 ar   
    24   11   48 1    
    25   12   13 ar   
    26   12   77 1    
    27   13   14 ar   
    28   13   15 1    
    29   14   78 1    
    30   15   16 1    
    31   15   79 1    
    32   15   80 1    
    33   16   17 1    
    34   17   18 1    
    35   17   81 1    
    36   17   82 1    
    37   18   19 1    
    38   18   22 1    
    39   18   83 1    
    40   19   20 am   BACKBONE|DICT|INTERRES
    41   19   21 2    
    42   20   84 1    
    43   20   85 1    
    44   22   23 am   BACKBONE|DICT|INTERRES
    45   22   86 1    
    46   23   24 2    
    47   23   25 1    
    48   25   26 1    
    49   25   27 1    
    50   25   87 1    
    51   26   88 1    
    52   26   89 1    
    53   26   90 1    
    54   27   28 am   BACKBONE|DICT|INTERRES
    55   27   91 1    
    56   28   29 2    
    57   28   30 1    
    58   30   31 1    
    59   30   32 1    
    60   30   92 1    
    61   31   93 1    
    62   31   94 1    
    63   31   95 1    
    64   32   33 am   BACKBONE|DICT|INTERRES
    65   32   96 1    
    66   33   34 2    
    67   33   35 1    
    68   35   36 1    
    69   35   37 1    
    70   35   97 1    
    71   36   98 1    
    72   36   99 1    
    73   36  100 1    
    74   37   38 am   BACKBONE|DICT|INTERRES
    75   37  101 1    
    76   38   39 2    
    77   38   40 1    
    78   40   41 1    
    79   40   42 1    
    80   40  102 1    
    81   41  103 1    
    82   41  104 1    
    83   41  105 1    
    84   42   43 am   BACKBONE|DICT|INTERRES
    85   42  106 1    
    86   43   44 2    
    87   43   45 1    
    88   45   46 1    
    89   45   49 1    
    90   45  107 1    
    91   46   47 1    
    92   46  108 1    
    93   46  109 1    
    94   47   48 1    
    95   48  110 1    
    96   48  111 1    
    97   49   50 am   BACKBONE|DICT|INTERRES
    98   49  112 1    
    99   50   51 2    
   100   50   52 1    
   101   52   53 1    
   102   52   54 1    
   103   52  113 1    
   104   53  114 1    
   105   53  115 1    
   106   53  116 1    
   107   54   55 am   BACKBONE|DICT|INTERRES
   108   54  117 1    
   109   55   56 2    
   110   55   57 1    
   111   57   58 1    
   112   57   59 1    
   113   57  118 1    
   114   58  119 1    
   115   58  120 1    
   116   58  121 1    
   117   59   60 am   BACKBONE|DICT|INTERRES
   118   59  122 1    
   119   60   61 2    
   120   60   62 1    
   121   62   63 1    
   122   62   64 1    
   123   62  123 1    
   124   63  124 1    
   125   63  125 1    
   126   63  126 1    
   127   64   65 am   BACKBONE|DICT|INTERRES
   128   64  127 1    
   129   65   66 2    
@<TRIPOS>SUBSTRUCTURE
     1 UNK         1 GROUP             0       ****    0 ROOT    
