@<TRIPOS>MOLECULE
3R135
127   129    1
SMALL
USER_CHARGES


@<TRIPOS>ATOM
      1 CA        -79.5229   27.0297  -78.6005 C.3       0 UNK        -0.1998 
      2 C         -79.5965   26.8679  -77.0916 C.2       0 UNK         0.4909 
      3 O         -78.6865   26.2936  -76.4901 O.2       0 UNK        -0.5240 
      4 N         -80.6605   27.3911  -76.4659 N.am      1 UNK        -0.4739 
      5 CA        -80.8868   27.2886  -75.0189 C.3       1 UNK         0.0864 
      6 C6        -81.8202   28.4044  -74.4742 C.3       11 UNK        -0.0881 
      7 S7        -81.0072   30.0400  -74.3818 S.3       11 UNK        -0.2682 
      8 C8        -80.7403   30.2679  -72.5825 C.3       11 UNK         0.0289 
      9 C9        -79.4557   29.6032  -72.0984 C.ar      11 UNK        -0.0687 
     10 C10       -79.3620   28.2130  -72.0693 C.ar      11 UNK        -0.0823 
     11 C11       -78.1633   27.5706  -71.7582 C.ar      11 UNK        -0.0830 
     12 C12       -77.0703   28.3435  -71.3453 C.ar      11 UNK        -0.1021 
     13 C13       -77.1644   29.7396  -71.2995 C.ar      11 UNK        -0.0753 
     14 C14       -78.3515   30.3645  -71.7017 C.ar      11 UNK        -0.0933 
     15 C15       -75.9941   30.5769  -70.7998 C.3       11 UNK         0.0166 
     16 S16       -74.6700   30.7317  -72.0398 S.3       11 UNK        -0.2615 
     17 C17       -73.5229   29.4058  -71.5234 C.3       11 UNK        -0.0865 
     18 CA        -72.1198   29.5462  -72.1697 C.3       10 UNK         0.0862 
     19 C         -71.1519   28.4587  -71.6370 C.2       10 UNK         0.5551 
     20 N         -70.2976   28.8020  -70.6829 N.am      10 UNK        -0.7319 
     21 O         -71.2004   27.3000  -72.0444 O.2       10 UNK        -0.5018 
     22 N         -72.1946   29.5150  -73.6348 N.am      10 UNK        -0.4509 
     23 C         -71.3163   30.1021  -74.4546 C.2       10 UNK         0.4899 
     24 O         -70.3240   30.7199  -74.0631 O.2       10 UNK        -0.4839 
     25 CA        -71.6287   30.0221  -75.9604 C.3       9 UNK         0.0222 
     26 CB        -70.5142   30.6143  -76.8506 C.3       9 UNK        -0.1966 
     27 N         -72.0064   28.6767  -76.4043 N.am      9 UNK        -0.4218 
     28 C         -71.2397   27.5750  -76.4390 C.2       9 UNK         0.5020 
     29 O         -70.0629   27.5510  -76.0753 O.2       9 UNK        -0.5274 
     30 CA        -71.8705   26.2696  -76.9749 C.3       8 UNK         0.0270 
     31 CB        -71.8110   25.1627  -75.9086 C.3       8 UNK        -0.1976 
     32 N         -73.2564   26.4155  -77.4321 N.am      8 UNK        -0.4313 
     33 C         -73.6456   27.0049  -78.5711 C.2       8 UNK         0.5041 
     34 O         -72.8668   27.4139  -79.4323 O.2       8 UNK        -0.5577 
     35 CA        -75.1588   27.2378  -78.7428 C.3       7 UNK         0.0284 
     36 CB        -75.8312   26.0265  -79.4101 C.3       7 UNK        -0.1958 
     37 N         -75.8211   27.5553  -77.4700 N.am      7 UNK        -0.4454 
     38 C         -75.5829   28.6702  -76.7601 C.2       7 UNK         0.5089 
     39 O         -74.8591   29.5837  -77.1539 O.2       7 UNK        -0.5125 
     40 CA        -76.1857   28.7573  -75.3498 C.3       6 UNK         0.0408 
     41 CB        -77.5546   29.4429  -75.3755 C.3       6 UNK        -0.1791 
     42 N         -76.2548   27.4403  -74.7012 N.am      6 UNK        -0.4762 
     43 C         -75.1705   26.8693  -74.1514 C.2       6 UNK         0.5007 
     44 O         -74.0727   27.4238  -74.1285 O.2       6 UNK        -0.5032 
     45 CA        -75.2609   25.4246  -73.6142 C.3       5 UNK         0.0783 
     46 C46       -75.2408   25.3120  -72.0621 C.3       11 UNK        -0.0857 
     47 S47       -76.7836   25.1604  -71.0822 S.3       11 UNK        -0.2512 
     48 C48       -78.1164   26.0550  -71.9459 C.3       11 UNK         0.0225 
     49 N         -76.2400   24.5723  -74.2949 N.am      5 UNK        -0.4615 
     50 C         -76.1529   24.2405  -75.5909 C.2       4 UNK         0.5053 
     51 O         -75.2445   24.6441  -76.3171 O.2       4 UNK        -0.5105 
     52 CA        -77.2473   23.3538  -76.2102 C.3       4 UNK         0.0263 
     53 CB        -76.6503   22.0988  -76.8797 C.3       4 UNK        -0.1981 
     54 N         -78.3589   23.0181  -75.3101 N.am      4 UNK        -0.4224 
     55 C         -78.3712   22.1728  -74.2677 C.2       3 UNK         0.4895 
     56 O         -77.3796   21.5594  -73.8742 O.2       3 UNK        -0.5091 
     57 CA        -79.7058   21.9969  -73.5142 C.3       3 UNK         0.0250 
     58 CB        -79.5256   22.2237  -72.0030 C.3       3 UNK        -0.1996 
     59 N         -80.7667   22.8855  -73.9977 N.am      3 UNK        -0.4254 
     60 C         -81.5620   22.6641  -75.0502 C.2       2 UNK         0.5004 
     61 O         -81.5130   21.6452  -75.7387 O.2       2 UNK        -0.5226 
     62 CA        -82.5576   23.7797  -75.4205 C.3       2 UNK         0.0269 
     63 CB        -83.7652   23.7856  -74.4622 C.3       2 UNK        -0.1926 
     64 N         -81.9630   25.1230  -75.5464 N.am      2 UNK        -0.4687 
     65 C         -81.4045   25.8954  -74.5995 C.2       1 UNK         0.5165 
     66 O         -81.2750   25.5472  -73.4255 O.2       1 UNK        -0.5079 
     67 H67       -80.4410   27.4503  -79.0100 H         1 UNK         0.0900 
     68 H68       -79.3533   26.0626  -79.0728 H         1 UNK         0.0900 
     69 H69       -78.6988   27.6919  -78.8638 H         1 UNK         0.0900 
     70 H70       -81.3633   27.8893  -76.9942 H         1 UNK         0.2959 
     71 H71       -79.9123   27.3967  -74.5429 H         1 UNK         0.1079 
     72 H72       -82.7072   28.4955  -75.1036 H         1 UNK         0.0837 
     73 H73       -82.2005   28.1577  -73.4811 H         1 UNK         0.0837 
     74 H74       -80.7034   31.3390  -72.3788 H         1 UNK         0.0685 
     75 H75       -81.5934   29.8855  -72.0206 H         1 UNK         0.0685 
     76 H76       -80.2239   27.6220  -72.3339 H         1 UNK         0.1434 
     77 H77       -76.1418   27.8712  -71.0657 H         1 UNK         0.1329 
     78 H78       -78.4168   31.4439  -71.7013 H         1 UNK         0.1335 
     79 H79       -76.3369   31.5802  -70.5425 H         1 UNK         0.0680 
     80 H80       -75.6041   30.1511  -69.8744 H         1 UNK         0.0680 
     81 H81       -73.9649   28.4405  -71.7648 H         1 UNK         0.1032 
     82 H82       -73.4303   29.4336  -70.4361 H         1 UNK         0.1032 
     83 H83       -71.7284   30.5224  -71.8745 H         1 UNK         0.0461 
     84 H84       -69.6718   28.1043  -70.3116 H         1 UNK         0.3453 
     85 H85       -70.2548   29.7480  -70.3366 H         1 UNK         0.3453 
     86 H86       -72.9313   28.9279  -74.0167 H         1 UNK         0.2984 
     87 H87       -72.5154   30.6398  -76.1088 H         1 UNK         0.0554 
     88 H88       -70.3387   31.6632  -76.6085 H         1 UNK         0.0847 
     89 H89       -70.7824   30.5673  -77.9060 H         1 UNK         0.0847 
     90 H90       -69.5667   30.0907  -76.7208 H         1 UNK         0.0847 
     91 H91       -72.9651   28.5911  -76.7183 H         1 UNK         0.3141 
     92 H92       -71.2691   25.9490  -77.8280 H         1 UNK         0.0743 
     93 H93       -72.2869   25.4774  -74.9804 H         1 UNK         0.0784 
     94 H94       -72.2980   24.2483  -76.2485 H         1 UNK         0.0784 
     95 H95       -70.7775   24.9099  -75.6684 H         1 UNK         0.0784 
     96 H96       -73.9778   26.0165  -76.8365 H         1 UNK         0.3213 
     97 H97       -75.2832   28.0976  -79.4049 H         1 UNK         0.0855 
     98 H98       -75.7670   25.1287  -78.7965 H         1 UNK         0.0814 
     99 H99       -75.3547   25.7982  -80.3645 H         1 UNK         0.0814 
    100 H100      -76.8829   26.2173  -79.6165 H         1 UNK         0.0814 
    101 H101      -76.4221   26.8461  -77.0695 H         1 UNK         0.3105 
    102 H102      -75.5333   29.3984  -74.7524 H         1 UNK         0.0547 
    103 H103      -78.2376   28.9858  -76.0845 H         1 UNK         0.0837 
    104 H104      -77.4538   30.4899  -75.6630 H         1 UNK         0.0837 
    105 H105      -78.0198   29.4240  -74.3940 H         1 UNK         0.0837 
    106 H106      -77.1215   26.9250  -74.7745 H         1 UNK         0.3020 
    107 H107      -74.2979   25.0050  -73.9141 H         1 UNK         0.1245 
    108 H108      -74.6745   24.4135  -71.8111 H         1 UNK         0.0781 
    109 H109      -74.6477   26.1188  -71.6290 H         1 UNK         0.0781 
    110 H110      -78.1138   25.8288  -73.0096 H         1 UNK         0.0836 
    111 H111      -79.0530   25.6439  -71.5658 H         1 UNK         0.0836 
    112 H112      -76.9727   24.1685  -73.7318 H         1 UNK         0.3022 
    113 H113      -77.6909   23.9507  -77.0075 H         1 UNK         0.0747 
    114 H114      -77.4255   21.4884  -77.3428 H         1 UNK         0.0793 
    115 H115      -75.9455   22.3757  -77.6649 H         1 UNK         0.0793 
    116 H116      -76.1081   21.4744  -76.1693 H         1 UNK         0.0793 
    117 H117      -79.2261   23.4917  -75.5196 H         1 UNK         0.3047 
    118 H118      -80.0196   20.9618  -73.6649 H         1 UNK         0.0822 
    119 H119      -80.4567   22.0507  -71.4630 H         1 UNK         0.0807 
    120 H120      -79.1955   23.2382  -71.7832 H         1 UNK         0.0807 
    121 H121      -78.7825   21.5421  -71.5866 H         1 UNK         0.0807 
    122 H122      -80.8804   23.7773  -73.5191 H         1 UNK         0.2946 
    123 H123      -82.9373   23.5312  -76.4135 H         1 UNK         0.1144 
    124 H124      -84.2525   22.8097  -74.4455 H         1 UNK         0.0793 
    125 H125      -84.5134   24.5146  -74.7734 H         1 UNK         0.0793 
    126 H126      -83.4772   24.0191  -73.4367 H         1 UNK         0.0793 
    127 H127      -81.9818   25.5076  -76.4810 H         1 UNK         0.2896 
@<TRIPOS>BOND
     1    1    2 1    
     2    1   67 1    
     3    1   68 1    
     4    1   69 1    
     5    2    3 2    
     6    2    4 am   BACKBONE|DICT|INTERRES
     7    4    5 1    
     8    4   70 1    
     9    5    6 1    
    10    5   65 1    
    11    5   71 1    
    12    6    7 1    
    13    6   72 1    
    14    6   73 1    
    15    7    8 1    
    16    8    9 1    
    17    8   74 1    
    18    8   75 1    
    19    9   10 ar   
    20    9   14 ar   
    21   10   11 ar   
    22   10   76 1    
    23   11   12 ar   
    24   11   48 1    
    25   12   13 ar   
    26   12   77 1    
    27   13   14 ar   
    28   13   15 1    
    29   14   78 1    
    30   15   16 1    
    31   15   79 1    
    32   15   80 1    
    33   16   17 1    
    34   17   18 1    
    35   17   81 1    
    36   17   82 1    
    37   18   19 1    
    38   18   22 1    
    39   18   83 1    
    40   19   20 am   BACKBONE|DICT|INTERRES
    41   19   21 2    
    42   20   84 1    
    43   20   85 1    
    44   22   23 am   BACKBONE|DICT|INTERRES
    45   22   86 1    
    46   23   24 2    
    47   23   25 1    
    48   25   26 1    
    49   25   27 1    
    50   25   87 1    
    51   26   88 1    
    52   26   89 1    
    53   26   90 1    
    54   27   28 am   BACKBONE|DICT|INTERRES
    55   27   91 1    
    56   28   29 2    
    57   28   30 1    
    58   30   31 1    
    59   30   32 1    
    60   30   92 1    
    61   31   93 1    
    62   31   94 1    
    63   31   95 1    
    64   32   33 am   BACKBONE|DICT|INTERRES
    65   32   96 1    
    66   33   34 2    
    67   33   35 1    
    68   35   36 1    
    69   35   37 1    
    70   35   97 1    
    71   36   98 1    
    72   36   99 1    
    73   36  100 1    
    74   37   38 am   BACKBONE|DICT|INTERRES
    75   37  101 1    
    76   38   39 2    
    77   38   40 1    
    78   40   41 1    
    79   40   42 1    
    80   40  102 1    
    81   41  103 1    
    82   41  104 1    
    83   41  105 1    
    84   42   43 am   BACKBONE|DICT|INTERRES
    85   42  106 1    
    86   43   44 2    
    87   43   45 1    
    88   45   46 1    
    89   45   49 1    
    90   45  107 1    
    91   46   47 1    
    92   46  108 1    
    93   46  109 1    
    94   47   48 1    
    95   48  110 1    
    96   48  111 1    
    97   49   50 am   BACKBONE|DICT|INTERRES
    98   49  112 1    
    99   50   51 2    
   100   50   52 1    
   101   52   53 1    
   102   52   54 1    
   103   52  113 1    
   104   53  114 1    
   105   53  115 1    
   106   53  116 1    
   107   54   55 am   BACKBONE|DICT|INTERRES
   108   54  117 1    
   109   55   56 2    
   110   55   57 1    
   111   57   58 1    
   112   57   59 1    
   113   57  118 1    
   114   58  119 1    
   115   58  120 1    
   116   58  121 1    
   117   59   60 am   BACKBONE|DICT|INTERRES
   118   59  122 1    
   119   60   61 2    
   120   60   62 1    
   121   62   63 1    
   122   62   64 1    
   123   62  123 1    
   124   63  124 1    
   125   63  125 1    
   126   63  126 1    
   127   64   65 am   BACKBONE|DICT|INTERRES
   128   64  127 1    
   129   65   66 2    
@<TRIPOS>SUBSTRUCTURE
     1 UNK         1 GROUP             0       ****    0 ROOT    
