@<TRIPOS>MOLECULE
3R135
127   129    1
SMALL
USER_CHARGES


@<TRIPOS>ATOM
      1 CA        -84.0887   25.0342  -70.4054 C.3       0 UNK        -0.1998 
      2 C         -83.1050   25.6261  -71.4030 C.2       0 UNK         0.4909 
      3 O         -82.0001   25.1045  -71.5529 O.2       0 UNK        -0.5240 
      4 N         -83.5041   26.7017  -72.0975 N.am      1 UNK        -0.4739 
      5 CA        -82.7435   27.4650  -73.1030 C.3       1 UNK         0.0864 
      6 C6        -81.3927   28.0073  -72.5629 C.3       11 UNK        -0.0881 
      7 S7        -80.9736   29.6495  -73.2345 S.3       11 UNK        -0.2682 
      8 C8        -79.8567   30.2816  -71.9420 C.3       11 UNK         0.0289 
      9 C9        -78.4774   29.6471  -72.0399 C.ar      11 UNK        -0.0687 
     10 C10       -78.2084   28.4330  -71.3999 C.ar      11 UNK        -0.0823 
     11 C11       -76.9520   27.8285  -71.5192 C.ar      11 UNK        -0.0830 
     12 C12       -75.9519   28.4754  -72.2515 C.ar      11 UNK        -0.1021 
     13 C13       -76.1976   29.7034  -72.8703 C.ar      11 UNK        -0.0753 
     14 C14       -77.4669   30.2795  -72.7701 C.ar      11 UNK        -0.0933 
     15 C15       -75.0881   30.4129  -73.6314 C.3       11 UNK         0.0166 
     16 S16       -73.8748   31.1212  -72.4736 S.3       11 UNK        -0.2615 
     17 C17       -73.0661   32.4131  -73.4831 C.3       11 UNK        -0.0865 
     18 CA        -71.6480   32.0523  -73.9991 C.3       10 UNK         0.0862 
     19 C         -70.6111   31.8674  -72.8540 C.2       10 UNK         0.5551 
     20 N         -70.1575   32.9597  -72.2533 N.am      10 UNK        -0.7319 
     21 O         -70.2348   30.7558  -72.4873 O.2       10 UNK        -0.5018 
     22 N         -71.6920   30.9286  -74.9432 N.am      10 UNK        -0.4509 
     23 C         -70.7416   30.6551  -75.8446 C.2       10 UNK         0.4899 
     24 O         -69.7241   31.3340  -75.9975 O.2       10 UNK        -0.4839 
     25 CA        -71.0038   29.4385  -76.7506 C.3       9 UNK         0.0222 
     26 CB        -69.8063   29.0827  -77.6583 C.3       9 UNK        -0.1966 
     27 N         -71.4738   28.2616  -76.0123 N.am      9 UNK        -0.4218 
     28 C         -70.8014   27.5507  -75.0903 C.2       9 UNK         0.5020 
     29 O         -69.6723   27.8345  -74.6888 O.2       9 UNK        -0.5274 
     30 CA        -71.4898   26.2885  -74.5263 C.3       8 UNK         0.0270 
     31 CB        -72.0981   26.5928  -73.1478 C.3       8 UNK        -0.1976 
     32 N         -72.5304   25.7381  -75.4025 N.am      8 UNK        -0.4313 
     33 C         -72.3222   25.2742  -76.6459 C.2       8 UNK         0.5041 
     34 O         -71.1997   25.0886  -77.1179 O.2       8 UNK        -0.5577 
     35 CA        -73.5511   25.0119  -77.5429 C.3       7 UNK         0.0284 
     36 CB        -73.7767   23.4996  -77.7065 C.3       7 UNK        -0.1958 
     37 N         -74.8023   25.6339  -77.0946 N.am      7 UNK        -0.4454 
     38 C         -75.0087   26.9297  -76.8161 C.2       7 UNK         0.5089 
     39 O         -74.1673   27.8127  -76.9882 O.2       7 UNK        -0.5125 
     40 CA        -76.3494   27.2897  -76.1494 C.3       6 UNK         0.0408 
     41 CB        -77.3683   27.7485  -77.2012 C.3       6 UNK        -0.1791 
     42 N         -76.9311   26.2122  -75.3378 N.am      6 UNK        -0.4762 
     43 C         -76.3286   25.5934  -74.3073 C.2       6 UNK         0.5007 
     44 O         -75.1661   25.8064  -73.9603 O.2       6 UNK        -0.5032 
     45 CA        -77.1584   24.5188  -73.5834 C.3       5 UNK         0.0783 
     46 C46       -78.3108   25.1485  -72.7526 C.3       11 UNK        -0.0857 
     47 S47       -77.9658   25.2435  -70.9642 S.3       11 UNK        -0.2512 
     48 C48       -76.6393   26.4953  -70.8441 C.3       11 UNK         0.0225 
     49 N         -77.6526   23.5615  -74.5730 N.am      5 UNK        -0.4615 
     50 C         -76.9241   22.5634  -75.0920 C.2       4 UNK         0.5053 
     51 O         -75.8022   22.2574  -74.6897 O.2       4 UNK        -0.5105 
     52 CA        -77.5359   21.7761  -76.2666 C.3       4 UNK         0.0263 
     53 CB        -78.1866   20.4788  -75.7602 C.3       4 UNK        -0.1981 
     54 N         -78.5229   22.5403  -77.0343 N.am      4 UNK        -0.4224 
     55 C         -78.2510   23.6297  -77.7680 C.2       3 UNK         0.4895 
     56 O         -77.1182   24.0780  -77.9347 O.2       3 UNK        -0.5091 
     57 CA        -79.4555   24.3803  -78.3645 C.3       3 UNK         0.0250 
     58 CB        -79.7939   23.8319  -79.7595 C.3       3 UNK        -0.1996 
     59 N         -80.6514   24.3371  -77.5142 N.am      3 UNK        -0.4254 
     60 C         -80.7175   24.8004  -76.2576 C.2       2 UNK         0.5004 
     61 O         -79.7690   25.3304  -75.6711 O.2       2 UNK        -0.5226 
     62 CA        -82.0336   24.5294  -75.5136 C.3       2 UNK         0.0269 
     63 CB        -82.0567   23.0817  -74.9936 C.3       2 UNK        -0.1926 
     64 N         -82.2219   25.4269  -74.3764 N.am      2 UNK        -0.4687 
     65 C         -82.5743   26.7153  -74.4449 C.2       1 UNK         0.5165 
     66 O         -82.8124   27.2977  -75.5045 O.2       1 UNK        -0.5079 
     67 H67       -83.6567   25.0419  -69.4050 H         1 UNK         0.0900 
     68 H68       -84.3157   24.0020  -70.6707 H         1 UNK         0.0900 
     69 H69       -85.0250   25.5911  -70.3749 H         1 UNK         0.0900 
     70 H70       -84.4412   27.0473  -71.9399 H         1 UNK         0.2959 
     71 H71       -83.3852   28.3209  -73.3202 H         1 UNK         0.1079 
     72 H72       -80.5746   27.3124  -72.7564 H         1 UNK         0.0837 
     73 H73       -81.4456   28.1037  -71.4776 H         1 UNK         0.0837 
     74 H74       -79.7756   31.3642  -72.0512 H         1 UNK         0.0685 
     75 H75       -80.2874   30.1110  -70.9542 H         1 UNK         0.0685 
     76 H76       -78.9838   27.9482  -70.8233 H         1 UNK         0.1434 
     77 H77       -74.9712   28.0283  -72.3340 H         1 UNK         0.1329 
     78 H78       -77.6683   31.2250  -73.2548 H         1 UNK         0.1335 
     79 H79       -75.5087   31.1994  -74.2597 H         1 UNK         0.0680 
     80 H80       -74.5881   29.7109  -74.3004 H         1 UNK         0.0680 
     81 H81       -73.0187   33.3210  -72.8791 H         1 UNK         0.1032 
     82 H82       -73.7055   32.6735  -74.3276 H         1 UNK         0.1032 
     83 H83       -71.3065   32.9156  -74.5748 H         1 UNK         0.0461 
     84 H84       -70.4583   33.8782  -72.5401 H         1 UNK         0.3453 
     85 H85       -69.4932   32.8636  -71.5010 H         1 UNK         0.3453 
     86 H86       -72.4671   30.2920  -74.8424 H         1 UNK         0.2984 
     87 H87       -71.8286   29.7249  -77.4047 H         1 UNK         0.0554 
     88 H88       -70.0343   28.2312  -78.2995 H         1 UNK         0.0847 
     89 H89       -68.9157   28.8370  -77.0791 H         1 UNK         0.0847 
     90 H90       -69.5482   29.9186  -78.3096 H         1 UNK         0.0847 
     91 H91       -72.4093   27.9498  -76.2657 H         1 UNK         0.3141 
     92 H92       -70.7217   25.5223  -74.4038 H         1 UNK         0.0743 
     93 H93       -72.8693   27.3608  -73.2127 H         1 UNK         0.0784 
     94 H94       -72.5458   25.7035  -72.7035 H         1 UNK         0.0784 
     95 H95       -71.3366   26.9546  -72.4553 H         1 UNK         0.0784 
     96 H96       -73.4866   25.8100  -75.0643 H         1 UNK         0.3213 
     97 H97       -73.3205   25.4326  -78.5235 H         1 UNK         0.0855 
     98 H98       -74.0632   23.0326  -76.7636 H         1 UNK         0.0814 
     99 H99       -72.8707   23.0022  -78.0555 H         1 UNK         0.0814 
    100 H100      -74.5583   23.2902  -78.4368 H         1 UNK         0.0814 
    101 H101      -75.6002   25.0121  -77.0050 H         1 UNK         0.3105 
    102 H102      -76.1629   28.1254  -75.4733 H         1 UNK         0.0547 
    103 H103      -77.0067   28.6303  -77.7317 H         1 UNK         0.0837 
    104 H104      -77.5485   26.9746  -77.9464 H         1 UNK         0.0837 
    105 H105      -78.3236   28.0116  -76.7463 H         1 UNK         0.0837 
    106 H106      -77.8933   25.9580  -75.5455 H         1 UNK         0.3020 
    107 H107      -76.4852   23.9855  -72.9078 H         1 UNK         0.1245 
    108 H108      -79.2149   24.5439  -72.8450 H         1 UNK         0.0781 
    109 H109      -78.6028   26.1334  -73.1204 H         1 UNK         0.0781 
    110 H110      -75.7247   26.0645  -71.2543 H         1 UNK         0.0836 
    111 H111      -76.4367   26.6834  -69.7891 H         1 UNK         0.0836 
    112 H112      -78.5420   23.7931  -74.9974 H         1 UNK         0.3022 
    113 H113      -76.7191   21.5116  -76.9418 H         1 UNK         0.0747 
    114 H114      -78.5523   19.8687  -76.5864 H         1 UNK         0.0793 
    115 H115      -77.4680   19.8726  -75.2064 H         1 UNK         0.0793 
    116 H116      -79.0253   20.6806  -75.0926 H         1 UNK         0.0793 
    117 H117      -79.4841   22.2409  -76.9642 H         1 UNK         0.3047 
    118 H118      -79.1712   25.4277  -78.4721 H         1 UNK         0.0822 
    119 H119      -80.5838   24.4140  -80.2345 H         1 UNK         0.0807 
    120 H120      -80.1199   22.7917  -79.7190 H         1 UNK         0.0807 
    121 H121      -78.9238   23.8751  -80.4164 H         1 UNK         0.0807 
    122 H122      -81.4711   23.9044  -77.9162 H         1 UNK         0.2946 
    123 H123      -82.8636   24.6751  -76.2089 H         1 UNK         0.1144 
    124 H124      -81.2383   22.8900  -74.2979 H         1 UNK         0.0793 
    125 H125      -81.9684   22.3637  -75.8098 H         1 UNK         0.0793 
    126 H126      -82.9909   22.8630  -74.4757 H         1 UNK         0.0793 
    127 H127      -82.0210   25.0566  -73.4513 H         1 UNK         0.2896 
@<TRIPOS>BOND
     1    1    2 1    
     2    1   67 1    
     3    1   68 1    
     4    1   69 1    
     5    2    3 2    
     6    2    4 am   BACKBONE|DICT|INTERRES
     7    4    5 1    
     8    4   70 1    
     9    5    6 1    
    10    5   65 1    
    11    5   71 1    
    12    6    7 1    
    13    6   72 1    
    14    6   73 1    
    15    7    8 1    
    16    8    9 1    
    17    8   74 1    
    18    8   75 1    
    19    9   10 ar   
    20    9   14 ar   
    21   10   11 ar   
    22   10   76 1    
    23   11   12 ar   
    24   11   48 1    
    25   12   13 ar   
    26   12   77 1    
    27   13   14 ar   
    28   13   15 1    
    29   14   78 1    
    30   15   16 1    
    31   15   79 1    
    32   15   80 1    
    33   16   17 1    
    34   17   18 1    
    35   17   81 1    
    36   17   82 1    
    37   18   19 1    
    38   18   22 1    
    39   18   83 1    
    40   19   20 am   BACKBONE|DICT|INTERRES
    41   19   21 2    
    42   20   84 1    
    43   20   85 1    
    44   22   23 am   BACKBONE|DICT|INTERRES
    45   22   86 1    
    46   23   24 2    
    47   23   25 1    
    48   25   26 1    
    49   25   27 1    
    50   25   87 1    
    51   26   88 1    
    52   26   89 1    
    53   26   90 1    
    54   27   28 am   BACKBONE|DICT|INTERRES
    55   27   91 1    
    56   28   29 2    
    57   28   30 1    
    58   30   31 1    
    59   30   32 1    
    60   30   92 1    
    61   31   93 1    
    62   31   94 1    
    63   31   95 1    
    64   32   33 am   BACKBONE|DICT|INTERRES
    65   32   96 1    
    66   33   34 2    
    67   33   35 1    
    68   35   36 1    
    69   35   37 1    
    70   35   97 1    
    71   36   98 1    
    72   36   99 1    
    73   36  100 1    
    74   37   38 am   BACKBONE|DICT|INTERRES
    75   37  101 1    
    76   38   39 2    
    77   38   40 1    
    78   40   41 1    
    79   40   42 1    
    80   40  102 1    
    81   41  103 1    
    82   41  104 1    
    83   41  105 1    
    84   42   43 am   BACKBONE|DICT|INTERRES
    85   42  106 1    
    86   43   44 2    
    87   43   45 1    
    88   45   46 1    
    89   45   49 1    
    90   45  107 1    
    91   46   47 1    
    92   46  108 1    
    93   46  109 1    
    94   47   48 1    
    95   48  110 1    
    96   48  111 1    
    97   49   50 am   BACKBONE|DICT|INTERRES
    98   49  112 1    
    99   50   51 2    
   100   50   52 1    
   101   52   53 1    
   102   52   54 1    
   103   52  113 1    
   104   53  114 1    
   105   53  115 1    
   106   53  116 1    
   107   54   55 am   BACKBONE|DICT|INTERRES
   108   54  117 1    
   109   55   56 2    
   110   55   57 1    
   111   57   58 1    
   112   57   59 1    
   113   57  118 1    
   114   58  119 1    
   115   58  120 1    
   116   58  121 1    
   117   59   60 am   BACKBONE|DICT|INTERRES
   118   59  122 1    
   119   60   61 2    
   120   60   62 1    
   121   62   63 1    
   122   62   64 1    
   123   62  123 1    
   124   63  124 1    
   125   63  125 1    
   126   63  126 1    
   127   64   65 am   BACKBONE|DICT|INTERRES
   128   64  127 1    
   129   65   66 2    
@<TRIPOS>SUBSTRUCTURE
     1 UNK         1 GROUP             0       ****    0 ROOT    
