@<TRIPOS>MOLECULE
3R135
127   129    1
SMALL
USER_CHARGES


@<TRIPOS>ATOM
      1 CA        -82.4789   24.4377  -67.7863 C.3       0 UNK        -0.1998 
      2 C         -82.8821   25.0136  -69.1355 C.2       0 UNK         0.4909 
      3 O         -83.9119   24.6217  -69.6861 O.2       0 UNK        -0.5240 
      4 N         -82.0846   25.9487  -69.6658 N.am      1 UNK        -0.4739 
      5 CA        -82.2615   26.5588  -70.9873 C.3       1 UNK         0.0864 
      6 C6        -81.4704   27.8874  -71.1330 C.3       11 UNK        -0.0881 
      7 S7        -79.7608   27.8487  -70.4840 S.3       11 UNK        -0.2682 
      8 C8        -78.7947   27.4782  -71.9755 C.3       11 UNK         0.0289 
      9 C9        -78.4819   28.7175  -72.7952 C.ar      11 UNK        -0.0687 
     10 C10       -79.3326   29.1127  -73.8298 C.ar      11 UNK        -0.0823 
     11 C11       -78.9935   30.1893  -74.6537 C.ar      11 UNK        -0.0830 
     12 C12       -77.8037   30.8854  -74.4246 C.ar      11 UNK        -0.1021 
     13 C13       -76.9412   30.4923  -73.3977 C.ar      11 UNK        -0.0753 
     14 C14       -77.2957   29.4213  -72.5723 C.ar      11 UNK        -0.0933 
     15 C15       -75.6053   31.1960  -73.2161 C.3       11 UNK         0.0166 
     16 S16       -74.3911   30.6525  -74.4632 S.3       11 UNK        -0.2615 
     17 C17       -73.9803   28.9667  -73.8888 C.3       11 UNK        -0.0865 
     18 CA        -72.6622   28.9403  -73.0745 C.3       10 UNK         0.0862 
     19 C         -72.4761   27.5827  -72.3414 C.2       10 UNK         0.5551 
     20 N         -73.1760   27.3836  -71.2324 N.am      10 UNK        -0.7319 
     21 O         -71.7328   26.7037  -72.7706 O.2       10 UNK        -0.5018 
     22 N         -71.5134   29.3061  -73.9152 N.am      10 UNK        -0.4509 
     23 C         -70.3137   29.6819  -73.4542 C.2       10 UNK         0.4899 
     24 O         -70.0523   29.8070  -72.2562 O.2       10 UNK        -0.4839 
     25 CA        -69.2376   30.0113  -74.5118 C.3       9 UNK         0.0222 
     26 CB        -67.8016   29.9685  -73.9446 C.3       9 UNK        -0.1966 
     27 N         -69.3503   29.2031  -75.7341 N.am      9 UNK        -0.4218 
     28 C         -69.2223   27.8724  -75.8362 C.2       9 UNK         0.5020 
     29 O         -68.9175   27.1227  -74.9062 O.2       9 UNK        -0.5274 
     30 CA        -69.4784   27.2728  -77.2278 C.3       8 UNK         0.0270 
     31 CB        -68.1868   26.6861  -77.8221 C.3       8 UNK        -0.1976 
     32 N         -70.5035   26.2312  -77.1590 N.am      8 UNK        -0.4313 
     33 C         -71.7999   26.4638  -76.9184 C.2       8 UNK         0.5041 
     34 O         -72.2775   27.5920  -76.7706 O.2       8 UNK        -0.5577 
     35 CA        -72.7025   25.2247  -76.8013 C.3       7 UNK         0.0284 
     36 CB        -72.8652   24.8083  -75.3319 C.3       7 UNK        -0.1958 
     37 N         -74.0222   25.4630  -77.3894 N.am      7 UNK        -0.4454 
     38 C         -74.2559   25.4932  -78.7099 C.2       7 UNK         0.5089 
     39 O         -73.3775   25.3061  -79.5539 O.2       7 UNK        -0.5125 
     40 CA        -75.6997   25.7315  -79.1946 C.3       6 UNK         0.0408 
     41 CB        -76.2468   24.4730  -79.8888 C.3       6 UNK        -0.1791 
     42 N         -76.6241   26.1201  -78.1278 N.am      6 UNK        -0.4762 
     43 C         -76.7558   27.3691  -77.6537 C.2       6 UNK         0.5007 
     44 O         -76.1126   28.3256  -78.0861 O.2       6 UNK        -0.5032 
     45 CA        -77.7629   27.5859  -76.4989 C.3       5 UNK         0.0783 
     46 C46       -79.1352   28.0764  -77.0402 C.3       11 UNK        -0.0857 
     47 S47       -79.1686   29.8688  -77.3906 S.3       11 UNK        -0.2512 
     48 C48       -79.8677   30.5415  -75.8464 C.3       11 UNK         0.0225 
     49 N         -77.9257   26.4001  -75.6460 N.am      5 UNK        -0.4615 
     50 C         -76.9361   25.7897  -74.9751 C.2       4 UNK         0.5053 
     51 O         -75.8037   26.2575  -74.8798 O.2       4 UNK        -0.5105 
     52 CA        -77.2088   24.3877  -74.3866 C.3       4 UNK         0.0263 
     53 CB        -77.1846   24.3842  -72.8500 C.3       4 UNK        -0.1981 
     54 N         -78.4483   23.7621  -74.8570 N.am      4 UNK        -0.4224 
     55 C         -78.7064   23.4386  -76.1318 C.2       3 UNK         0.4895 
     56 O         -77.8859   23.5624  -77.0419 O.2       3 UNK        -0.5091 
     57 CA        -80.1245   22.9504  -76.4723 C.3       3 UNK         0.0250 
     58 CB        -80.1315   21.4229  -76.6450 C.3       3 UNK        -0.1996 
     59 N         -81.1857   23.3297  -75.5289 N.am      3 UNK        -0.4254 
     60 C         -81.5162   24.5677  -75.1274 C.2       2 UNK         0.5004 
     61 O         -80.8585   25.5753  -75.3966 O.2       2 UNK        -0.5226 
     62 CA        -82.8318   24.7103  -74.3326 C.3       2 UNK         0.0269 
     63 CB        -83.4372   23.3666  -73.8590 C.3       2 UNK        -0.1926 
     64 N         -82.7505   25.6501  -73.2072 N.am      2 UNK        -0.4687 
     65 C         -81.9698   25.5480  -72.1215 C.2       1 UNK         0.5165 
     66 O         -81.0844   24.6986  -71.9842 O.2       1 UNK        -0.5079 
     67 H67       -81.5581   24.8844  -67.4115 H         1 UNK         0.0900 
     68 H68       -82.3246   23.3622  -67.8691 H         1 UNK         0.0900 
     69 H69       -83.2648   24.6145  -67.0524 H         1 UNK         0.0900 
     70 H70       -81.2348   26.2157  -69.1884 H         1 UNK         0.2959 
     71 H71       -83.3209   26.8148  -71.0670 H         1 UNK         0.1079 
     72 H72       -81.4813   28.2421  -72.1631 H         1 UNK         0.0837 
     73 H73       -81.9921   28.6616  -70.5682 H         1 UNK         0.0837 
     74 H74       -77.8616   27.0059  -71.6664 H         1 UNK         0.0685 
     75 H75       -79.3188   26.7469  -72.5910 H         1 UNK         0.0685 
     76 H76       -80.2314   28.5471  -74.0313 H         1 UNK         0.1434 
     77 H77       -77.5223   31.6990  -75.0796 H         1 UNK         0.1329 
     78 H78       -76.6292   29.1068  -71.7812 H         1 UNK         0.1335 
     79 H79       -75.2047   31.0249  -72.2156 H         1 UNK         0.0680 
     80 H80       -75.7484   32.2735  -73.3090 H         1 UNK         0.0680 
     81 H81       -74.8102   28.5680  -73.3063 H         1 UNK         0.1032 
     82 H82       -73.9039   28.3125  -74.7594 H         1 UNK         0.1032 
     83 H83       -72.7403   29.7029  -72.2964 H         1 UNK         0.0461 
     84 H84       -73.0766   26.5067  -70.7457 H         1 UNK         0.3453 
     85 H85       -73.7815   28.0968  -70.8587 H         1 UNK         0.3453 
     86 H86       -71.6395   29.1792  -74.9100 H         1 UNK         0.2984 
     87 H87       -69.4321   31.0402  -74.8179 H         1 UNK         0.0554 
     88 H88       -67.0643   30.2159  -74.7083 H         1 UNK         0.0847 
     89 H89       -67.5528   28.9858  -73.5431 H         1 UNK         0.0847 
     90 H90       -67.6794   30.6884  -73.1344 H         1 UNK         0.0847 
     91 H91       -69.6118   29.7152  -76.5661 H         1 UNK         0.3141 
     92 H92       -69.8358   28.0565  -77.8996 H         1 UNK         0.0743 
     93 H93       -67.7871   25.8793  -77.2061 H         1 UNK         0.0784 
     94 H94       -68.3535   26.2927  -78.8251 H         1 UNK         0.0784 
     95 H95       -67.4122   27.4504  -77.8991 H         1 UNK         0.0784 
     96 H96       -70.1804   25.2766  -77.2219 H         1 UNK         0.3213 
     97 H97       -72.2362   24.3955  -77.3383 H         1 UNK         0.0855 
     98 H98       -73.2935   25.6123  -74.7336 H         1 UNK         0.0814 
     99 H99       -71.9009   24.5589  -74.8872 H         1 UNK         0.0814 
    100 H100      -73.5083   23.9342  -75.2305 H         1 UNK         0.0814 
    101 H101      -74.7683   25.7085  -76.7502 H         1 UNK         0.3105 
    102 H102      -75.6638   26.5317  -79.9369 H         1 UNK         0.0547 
    103 H103      -75.6279   24.1973  -80.7436 H         1 UNK         0.0837 
    104 H104      -76.2670   23.6166  -79.2139 H         1 UNK         0.0837 
    105 H105      -77.2589   24.6309  -80.2613 H         1 UNK         0.0837 
    106 H106      -77.1645   25.3701  -77.7063 H         1 UNK         0.3020 
    107 H107      -77.3294   28.3578  -75.8598 H         1 UNK         0.1245 
    108 H108      -79.9296   27.8664  -76.3243 H         1 UNK         0.0781 
    109 H109      -79.4219   27.5333  -77.9430 H         1 UNK         0.0781 
    110 H110      -80.8828   30.1648  -75.7105 H         1 UNK         0.0836 
    111 H111      -79.9519   31.6257  -75.9339 H         1 UNK         0.0836 
    112 H112      -78.8480   25.9762  -75.6427 H         1 UNK         0.3022 
    113 H113      -76.3810   23.7614  -74.7264 H         1 UNK         0.0747 
    114 H114      -76.3653   24.9906  -72.4606 H         1 UNK         0.0793 
    115 H115      -78.1136   24.7627  -72.4270 H         1 UNK         0.0793 
    116 H116      -77.0439   23.3732  -72.4674 H         1 UNK         0.0793 
    117 H117      -79.1916   23.6564  -74.1807 H         1 UNK         0.3047 
    118 H118      -80.3831   23.4008  -77.4327 H         1 UNK         0.0822 
    119 H119      -81.0926   21.0680  -77.0176 H         1 UNK         0.0807 
    120 H120      -79.9238   20.9101  -75.7049 H         1 UNK         0.0807 
    121 H121      -79.3735   21.1060  -77.3631 H         1 UNK         0.0807 
    122 H122      -81.7883   22.5771  -75.2286 H         1 UNK         0.2946 
    123 H123      -83.5397   25.1510  -75.0367 H         1 UNK         0.1144 
    124 H124      -83.6866   22.7182  -74.6999 H         1 UNK         0.0793 
    125 H125      -82.7590   22.8204  -73.2017 H         1 UNK         0.0793 
    126 H126      -84.3636   23.5292  -73.3075 H         1 UNK         0.0793 
    127 H127      -83.4094   26.4156  -73.2475 H         1 UNK         0.2896 
@<TRIPOS>BOND
     1    1    2 1    
     2    1   67 1    
     3    1   68 1    
     4    1   69 1    
     5    2    3 2    
     6    2    4 am   BACKBONE|DICT|INTERRES
     7    4    5 1    
     8    4   70 1    
     9    5    6 1    
    10    5   65 1    
    11    5   71 1    
    12    6    7 1    
    13    6   72 1    
    14    6   73 1    
    15    7    8 1    
    16    8    9 1    
    17    8   74 1    
    18    8   75 1    
    19    9   10 ar   
    20    9   14 ar   
    21   10   11 ar   
    22   10   76 1    
    23   11   12 ar   
    24   11   48 1    
    25   12   13 ar   
    26   12   77 1    
    27   13   14 ar   
    28   13   15 1    
    29   14   78 1    
    30   15   16 1    
    31   15   79 1    
    32   15   80 1    
    33   16   17 1    
    34   17   18 1    
    35   17   81 1    
    36   17   82 1    
    37   18   19 1    
    38   18   22 1    
    39   18   83 1    
    40   19   20 am   BACKBONE|DICT|INTERRES
    41   19   21 2    
    42   20   84 1    
    43   20   85 1    
    44   22   23 am   BACKBONE|DICT|INTERRES
    45   22   86 1    
    46   23   24 2    
    47   23   25 1    
    48   25   26 1    
    49   25   27 1    
    50   25   87 1    
    51   26   88 1    
    52   26   89 1    
    53   26   90 1    
    54   27   28 am   BACKBONE|DICT|INTERRES
    55   27   91 1    
    56   28   29 2    
    57   28   30 1    
    58   30   31 1    
    59   30   32 1    
    60   30   92 1    
    61   31   93 1    
    62   31   94 1    
    63   31   95 1    
    64   32   33 am   BACKBONE|DICT|INTERRES
    65   32   96 1    
    66   33   34 2    
    67   33   35 1    
    68   35   36 1    
    69   35   37 1    
    70   35   97 1    
    71   36   98 1    
    72   36   99 1    
    73   36  100 1    
    74   37   38 am   BACKBONE|DICT|INTERRES
    75   37  101 1    
    76   38   39 2    
    77   38   40 1    
    78   40   41 1    
    79   40   42 1    
    80   40  102 1    
    81   41  103 1    
    82   41  104 1    
    83   41  105 1    
    84   42   43 am   BACKBONE|DICT|INTERRES
    85   42  106 1    
    86   43   44 2    
    87   43   45 1    
    88   45   46 1    
    89   45   49 1    
    90   45  107 1    
    91   46   47 1    
    92   46  108 1    
    93   46  109 1    
    94   47   48 1    
    95   48  110 1    
    96   48  111 1    
    97   49   50 am   BACKBONE|DICT|INTERRES
    98   49  112 1    
    99   50   51 2    
   100   50   52 1    
   101   52   53 1    
   102   52   54 1    
   103   52  113 1    
   104   53  114 1    
   105   53  115 1    
   106   53  116 1    
   107   54   55 am   BACKBONE|DICT|INTERRES
   108   54  117 1    
   109   55   56 2    
   110   55   57 1    
   111   57   58 1    
   112   57   59 1    
   113   57  118 1    
   114   58  119 1    
   115   58  120 1    
   116   58  121 1    
   117   59   60 am   BACKBONE|DICT|INTERRES
   118   59  122 1    
   119   60   61 2    
   120   60   62 1    
   121   62   63 1    
   122   62   64 1    
   123   62  123 1    
   124   63  124 1    
   125   63  125 1    
   126   63  126 1    
   127   64   65 am   BACKBONE|DICT|INTERRES
   128   64  127 1    
   129   65   66 2    
@<TRIPOS>SUBSTRUCTURE
     1 UNK         1 GROUP             0       ****    0 ROOT    
