@<TRIPOS>MOLECULE
3R135
127   129    1
SMALL
USER_CHARGES


@<TRIPOS>ATOM
      1 CA        -81.6246   25.1987  -71.9851 C.3       0 UNK        -0.1998 
      2 C         -81.6574   25.6563  -73.4349 C.2       0 UNK         0.4909 
      3 O         -82.3867   25.0836  -74.2454 O.2       0 UNK        -0.5240 
      4 N         -80.8731   26.6857  -73.7781 N.am      1 UNK        -0.4739 
      5 CA        -80.7462   27.2016  -75.1444 C.3       1 UNK         0.0864 
      6 C6        -80.0226   28.5676  -75.2031 C.3       11 UNK        -0.0881 
      7 S7        -80.9570   29.8468  -74.2960 S.3       11 UNK        -0.2682 
      8 C8        -79.6431   30.9965  -73.7570 C.3       11 UNK         0.0289 
      9 C9        -78.5915   30.4125  -72.8116 C.ar      11 UNK        -0.0687 
     10 C10       -78.8452   29.2986  -71.9999 C.ar      11 UNK        -0.0823 
     11 C11       -77.8623   28.8023  -71.1394 C.ar      11 UNK        -0.0830 
     12 C12       -76.6286   29.4536  -71.0584 C.ar      11 UNK        -0.1021 
     13 C13       -76.3646   30.5755  -71.8476 C.ar      11 UNK        -0.0753 
     14 C14       -77.3453   31.0422  -72.7272 C.ar      11 UNK        -0.0933 
     15 C15       -75.0325   31.3018  -71.7304 C.3       11 UNK         0.0166 
     16 S16       -73.8310   30.7170  -72.9628 S.3       11 UNK        -0.2615 
     17 C17       -73.4176   29.0619  -72.3192 C.3       11 UNK        -0.0865 
     18 CA        -71.9519   28.6734  -72.6333 C.3       10 UNK         0.0862 
     19 C         -71.5244   27.4063  -71.8458 C.2       10 UNK         0.5551 
     20 N         -72.0131   26.2278  -72.2094 N.am      10 UNK        -0.7319 
     21 O         -70.7423   27.4935  -70.9024 O.2       10 UNK        -0.5018 
     22 N         -71.7196   28.5380  -74.0784 N.am      10 UNK        -0.4509 
     23 C         -70.5114   28.4968  -74.6538 C.2       10 UNK         0.4899 
     24 O         -69.4557   28.6591  -74.0405 O.2       10 UNK        -0.4839 
     25 CA        -70.4526   28.2344  -76.1658 C.3       9 UNK         0.0222 
     26 CB        -70.4698   26.7208  -76.4370 C.3       9 UNK        -0.1966 
     27 N         -71.5624   28.8630  -76.8884 N.am      9 UNK        -0.4218 
     28 C         -71.4331   29.8361  -77.8023 C.2       9 UNK         0.5020 
     29 O         -70.3566   30.3613  -78.0919 O.2       9 UNK        -0.5274 
     30 CA        -72.6956   30.2902  -78.5633 C.3       8 UNK         0.0270 
     31 CB        -72.6953   29.7090  -79.9876 C.3       8 UNK        -0.1976 
     32 N         -73.9468   29.9146  -77.9033 N.am      8 UNK        -0.4313 
     33 C         -74.4927   30.5728  -76.8729 C.2       8 UNK         0.5041 
     34 O         -74.0454   31.6314  -76.4313 O.2       8 UNK        -0.5577 
     35 CA        -75.7514   29.9549  -76.2267 C.3       7 UNK         0.0284 
     36 CB        -77.0082   30.6693  -76.7473 C.3       7 UNK        -0.1958 
     37 N         -75.9198   28.5040  -76.4071 N.am      7 UNK        -0.4454 
     38 C         -75.0228   27.5617  -76.0882 C.2       7 UNK         0.5089 
     39 O         -73.8909   27.8085  -75.6723 O.2       7 UNK        -0.5125 
     40 CA        -75.4609   26.1053  -76.3029 C.3       6 UNK         0.0408 
     41 CB        -74.2836   25.2000  -76.7197 C.3       6 UNK        -0.1791 
     42 N         -76.1479   25.5552  -75.1320 N.am      6 UNK        -0.4762 
     43 C         -75.6705   25.4039  -73.8858 C.2       6 UNK         0.5007 
     44 O         -74.5512   25.7626  -73.5190 O.2       6 UNK        -0.5032 
     45 CA        -76.5830   24.6498  -72.8961 C.3       5 UNK         0.0783 
     46 C46       -77.6295   25.5778  -72.2213 C.3       11 UNK        -0.0857 
     47 S47       -77.0106   26.2041  -70.6238 S.3       11 UNK        -0.2512 
     48 C48       -78.1425   27.5858  -70.2682 C.3       11 UNK         0.0225 
     49 N         -77.1888   23.4566  -73.5034 N.am      5 UNK        -0.4615 
     50 C         -76.4972   22.3678  -73.8690 C.2       4 UNK         0.5053 
     51 O         -75.2762   22.2724  -73.7400 O.2       4 UNK        -0.5105 
     52 CA        -77.2514   21.1673  -74.4735 C.3       4 UNK         0.0263 
     53 CB        -77.3022   19.9950  -73.4725 C.3       4 UNK        -0.1981 
     54 N         -78.5852   21.4357  -75.0285 N.am      4 UNK        -0.4224 
     55 C         -79.7129   21.7822  -74.3955 C.2       3 UNK         0.4895 
     56 O         -79.7726   22.0834  -73.2028 O.2       3 UNK        -0.5091 
     57 CA        -80.9751   21.8317  -75.2732 C.3       3 UNK         0.0250 
     58 CB        -82.2729   21.7508  -74.4484 C.3       3 UNK        -0.1996 
     59 N         -80.9807   23.0425  -76.0958 N.am      3 UNK        -0.4254 
     60 C         -80.2479   23.2046  -77.2097 C.2       2 UNK         0.5004 
     61 O         -79.5360   22.3167  -77.6826 O.2       2 UNK        -0.5226 
     62 CA        -80.2942   24.5726  -77.9174 C.3       2 UNK         0.0269 
     63 CB        -81.1995   24.5050  -79.1580 C.3       2 UNK        -0.1926 
     64 N         -80.7431   25.6683  -77.0549 N.am      2 UNK        -0.4687 
     65 C         -80.0424   26.1512  -76.0212 C.2       1 UNK         0.5165 
     66 O         -78.9087   25.7698  -75.7222 O.2       1 UNK        -0.5079 
     67 H67       -82.6351   25.1690  -71.5787 H         1 UNK         0.0900 
     68 H68       -81.0284   25.8626  -71.3604 H         1 UNK         0.0900 
     69 H69       -81.2014   24.1965  -71.9196 H         1 UNK         0.0900 
     70 H70       -80.2837   27.1236  -73.0887 H         1 UNK         0.2959 
     71 H71       -81.7568   27.3491  -75.5331 H         1 UNK         0.1079 
     72 H72       -79.0105   28.4841  -74.8025 H         1 UNK         0.0837 
     73 H73       -79.9204   28.9013  -76.2374 H         1 UNK         0.0837 
     74 H74       -79.1620   31.4088  -74.6440 H         1 UNK         0.0685 
     75 H75       -80.1187   31.8383  -73.2524 H         1 UNK         0.0685 
     76 H76       -79.8133   28.8217  -72.0253 H         1 UNK         0.1434 
     77 H77       -75.8755   29.0850  -70.3757 H         1 UNK         0.1329 
     78 H78       -77.1402   31.9113  -73.3377 H         1 UNK         0.1335 
     79 H79       -75.1858   32.3722  -71.8750 H         1 UNK         0.0680 
     80 H80       -74.6186   31.1899  -70.7271 H         1 UNK         0.0680 
     81 H81       -74.1153   28.3359  -72.7413 H         1 UNK         0.1032 
     82 H82       -73.5820   29.0543  -71.2404 H         1 UNK         0.1032 
     83 H83       -71.3185   29.4899  -72.2796 H         1 UNK         0.0461 
     84 H84       -71.7320   25.4036  -71.7042 H         1 UNK         0.3453 
     85 H85       -72.7440   26.1596  -72.9119 H         1 UNK         0.3453 
     86 H86       -72.5453   28.3416  -74.6402 H         1 UNK         0.2984 
     87 H87       -69.4974   28.6239  -76.5239 H         1 UNK         0.0554 
     88 H88       -70.3756   26.5071  -77.5017 H         1 UNK         0.0847 
     89 H89       -71.3910   26.2584  -76.0817 H         1 UNK         0.0847 
     90 H90       -69.6405   26.2240  -75.9315 H         1 UNK         0.0847 
     91 H91       -72.4932   28.5297  -76.6501 H         1 UNK         0.3141 
     92 H92       -72.6541   31.3788  -78.6426 H         1 UNK         0.0743 
     93 H93       -71.7930   29.9997  -80.5277 H         1 UNK         0.0784 
     94 H94       -72.7327   28.6189  -79.9802 H         1 UNK         0.0784 
     95 H95       -73.5459   30.0719  -80.5650 H         1 UNK         0.0784 
     96 H96       -74.3939   29.0656  -78.2167 H         1 UNK         0.3213 
     97 H97       -75.6804   30.1315  -75.1523 H         1 UNK         0.0855 
     98 H98       -76.9540   31.7423  -76.5572 H         1 UNK         0.0814 
     99 H99       -77.9063   30.3011  -76.2564 H         1 UNK         0.0814 
    100 H100      -77.1337   30.5339  -77.8223 H         1 UNK         0.0814 
    101 H101      -76.8195   28.1993  -76.7493 H         1 UNK         0.3105 
    102 H102      -76.1846   26.0937  -77.1195 H         1 UNK         0.0547 
    103 H103      -73.7816   25.5928  -77.6045 H         1 UNK         0.0837 
    104 H104      -73.5341   25.1153  -75.9326 H         1 UNK         0.0837 
    105 H105      -74.6263   24.1936  -76.9592 H         1 UNK         0.0837 
    106 H106      -77.1233   25.3111  -75.2907 H         1 UNK         0.3020 
    107 H107      -75.9186   24.2644  -72.1183 H         1 UNK         0.1245 
    108 H108      -78.5488   25.0295  -72.0106 H         1 UNK         0.0781 
    109 H109      -77.9166   26.4094  -72.8683 H         1 UNK         0.0781 
    110 H110      -78.0254   27.8716  -69.2219 H         1 UNK         0.0836 
    111 H111      -79.1731   27.2460  -70.3765 H         1 UNK         0.0836 
    112 H112      -78.1975   23.4270  -73.5797 H         1 UNK         0.3022 
    113 H113      -76.6506   20.8410  -75.3240 H         1 UNK         0.0747 
    114 H114      -77.7544   19.1097  -73.9196 H         1 UNK         0.0793 
    115 H115      -76.2993   19.7152  -73.1470 H         1 UNK         0.0793 
    116 H116      -77.8722   20.2485  -72.5780 H         1 UNK         0.0793 
    117 H117      -78.6558   21.3403  -76.0370 H         1 UNK         0.3047 
    118 H118      -80.9593   20.9596  -75.9311 H         1 UNK         0.0822 
    119 H119      -83.1545   21.7957  -75.0879 H         1 UNK         0.0807 
    120 H120      -82.3483   22.5548  -73.7173 H         1 UNK         0.0807 
    121 H121      -82.3200   20.8115  -73.8960 H         1 UNK         0.0807 
    122 H122      -81.5111   23.8281  -75.7342 H         1 UNK         0.2946 
    123 H123      -79.2762   24.7952  -78.2463 H         1 UNK         0.1144 
    124 H124      -80.8726   23.7165  -79.8375 H         1 UNK         0.0793 
    125 H125      -81.1777   25.4405  -79.7174 H         1 UNK         0.0793 
    126 H126      -82.2362   24.2957  -78.8910 H         1 UNK         0.0793 
    127 H127      -81.6771   26.0167  -77.2194 H         1 UNK         0.2896 
@<TRIPOS>BOND
     1    1    2 1    
     2    1   67 1    
     3    1   68 1    
     4    1   69 1    
     5    2    3 2    
     6    2    4 am   BACKBONE|DICT|INTERRES
     7    4    5 1    
     8    4   70 1    
     9    5    6 1    
    10    5   65 1    
    11    5   71 1    
    12    6    7 1    
    13    6   72 1    
    14    6   73 1    
    15    7    8 1    
    16    8    9 1    
    17    8   74 1    
    18    8   75 1    
    19    9   10 ar   
    20    9   14 ar   
    21   10   11 ar   
    22   10   76 1    
    23   11   12 ar   
    24   11   48 1    
    25   12   13 ar   
    26   12   77 1    
    27   13   14 ar   
    28   13   15 1    
    29   14   78 1    
    30   15   16 1    
    31   15   79 1    
    32   15   80 1    
    33   16   17 1    
    34   17   18 1    
    35   17   81 1    
    36   17   82 1    
    37   18   19 1    
    38   18   22 1    
    39   18   83 1    
    40   19   20 am   BACKBONE|DICT|INTERRES
    41   19   21 2    
    42   20   84 1    
    43   20   85 1    
    44   22   23 am   BACKBONE|DICT|INTERRES
    45   22   86 1    
    46   23   24 2    
    47   23   25 1    
    48   25   26 1    
    49   25   27 1    
    50   25   87 1    
    51   26   88 1    
    52   26   89 1    
    53   26   90 1    
    54   27   28 am   BACKBONE|DICT|INTERRES
    55   27   91 1    
    56   28   29 2    
    57   28   30 1    
    58   30   31 1    
    59   30   32 1    
    60   30   92 1    
    61   31   93 1    
    62   31   94 1    
    63   31   95 1    
    64   32   33 am   BACKBONE|DICT|INTERRES
    65   32   96 1    
    66   33   34 2    
    67   33   35 1    
    68   35   36 1    
    69   35   37 1    
    70   35   97 1    
    71   36   98 1    
    72   36   99 1    
    73   36  100 1    
    74   37   38 am   BACKBONE|DICT|INTERRES
    75   37  101 1    
    76   38   39 2    
    77   38   40 1    
    78   40   41 1    
    79   40   42 1    
    80   40  102 1    
    81   41  103 1    
    82   41  104 1    
    83   41  105 1    
    84   42   43 am   BACKBONE|DICT|INTERRES
    85   42  106 1    
    86   43   44 2    
    87   43   45 1    
    88   45   46 1    
    89   45   49 1    
    90   45  107 1    
    91   46   47 1    
    92   46  108 1    
    93   46  109 1    
    94   47   48 1    
    95   48  110 1    
    96   48  111 1    
    97   49   50 am   BACKBONE|DICT|INTERRES
    98   49  112 1    
    99   50   51 2    
   100   50   52 1    
   101   52   53 1    
   102   52   54 1    
   103   52  113 1    
   104   53  114 1    
   105   53  115 1    
   106   53  116 1    
   107   54   55 am   BACKBONE|DICT|INTERRES
   108   54  117 1    
   109   55   56 2    
   110   55   57 1    
   111   57   58 1    
   112   57   59 1    
   113   57  118 1    
   114   58  119 1    
   115   58  120 1    
   116   58  121 1    
   117   59   60 am   BACKBONE|DICT|INTERRES
   118   59  122 1    
   119   60   61 2    
   120   60   62 1    
   121   62   63 1    
   122   62   64 1    
   123   62  123 1    
   124   63  124 1    
   125   63  125 1    
   126   63  126 1    
   127   64   65 am   BACKBONE|DICT|INTERRES
   128   64  127 1    
   129   65   66 2    
@<TRIPOS>SUBSTRUCTURE
     1 UNK         1 GROUP             0       ****    0 ROOT    
