@<TRIPOS>MOLECULE
3R135
127   129    1
SMALL
USER_CHARGES


@<TRIPOS>ATOM
      1 CA        -81.2911   22.5962  -70.3802 C.3       0 UNK        -0.1998 
      2 C         -81.9225   23.9631  -70.5984 C.2       0 UNK         0.4909 
      3 O         -83.0276   24.2135  -70.1161 O.2       0 UNK        -0.5240 
      4 N         -81.2312   24.8470  -71.3230 N.am      1 UNK        -0.4739 
      5 CA        -81.6739   26.1949  -71.6672 C.3       1 UNK         0.0864 
      6 C6        -81.3530   27.2019  -70.5294 C.3       11 UNK        -0.0881 
      7 S7        -81.8316   28.9314  -70.8896 S.3       11 UNK        -0.2682 
      8 C8        -80.3324   29.8695  -70.4312 C.3       11 UNK         0.0289 
      9 C9        -79.0957   29.4151  -71.1960 C.ar      11 UNK        -0.0687 
     10 C10       -79.0012   29.6222  -72.5747 C.ar      11 UNK        -0.0823 
     11 C11       -77.8975   29.1493  -73.2919 C.ar      11 UNK        -0.0830 
     12 C12       -76.8736   28.4792  -72.6107 C.ar      11 UNK        -0.1021 
     13 C13       -76.9434   28.2921  -71.2279 C.ar      11 UNK        -0.0753 
     14 C14       -78.0554   28.7644  -70.5263 C.ar      11 UNK        -0.0933 
     15 C15       -75.8413   27.5478  -70.4897 C.3       11 UNK         0.0166 
     16 S16       -74.6086   28.6917  -69.7917 S.3       11 UNK        -0.2615 
     17 C17       -73.4942   28.9674  -71.2120 C.3       11 UNK        -0.0865 
     18 CA        -73.7968   30.2742  -72.0056 C.3       10 UNK         0.0862 
     19 C         -73.1779   31.5608  -71.3737 C.2       10 UNK         0.5551 
     20 N         -72.8302   32.5715  -72.1619 N.am      10 UNK        -0.7319 
     21 O         -73.0278   31.6630  -70.1588 O.2       10 UNK        -0.5018 
     22 N         -73.5261   30.1053  -73.4441 N.am      10 UNK        -0.4509 
     23 C         -72.3319   29.8241  -73.9818 C.2       10 UNK         0.4899 
     24 O         -71.2812   29.7376  -73.3426 O.2       10 UNK        -0.4839 
     25 CA        -72.3082   29.6033  -75.5037 C.3       9 UNK         0.0222 
     26 CB        -71.6778   30.8100  -76.2169 C.3       9 UNK        -0.1966 
     27 N         -71.5922   28.3810  -75.8830 N.am      9 UNK        -0.4218 
     28 C         -71.9154   27.1431  -75.4837 C.2       9 UNK         0.5020 
     29 O         -72.8448   26.8827  -74.7183 O.2       9 UNK        -0.5274 
     30 CA        -71.0625   25.9964  -76.0296 C.3       8 UNK         0.0270 
     31 CB        -70.1106   25.4563  -74.9455 C.3       8 UNK        -0.1976 
     32 N         -71.9546   24.9400  -76.5056 N.am      8 UNK        -0.4313 
     33 C         -71.6127   23.9887  -77.3843 C.2       8 UNK         0.5041 
     34 O         -70.4871   23.8805  -77.8733 O.2       8 UNK        -0.5577 
     35 CA        -72.7103   23.0047  -77.8123 C.3       7 UNK         0.0284 
     36 CB        -73.0933   22.0573  -76.6619 C.3       7 UNK        -0.1958 
     37 N         -73.8917   23.7264  -78.2841 N.am      7 UNK        -0.4454 
     38 C         -74.1071   24.0800  -79.5604 C.2       7 UNK         0.5089 
     39 O         -73.3646   23.7662  -80.4915 O.2       7 UNK        -0.5125 
     40 CA        -75.3594   24.9272  -79.8633 C.3       6 UNK         0.0408 
     41 CB        -76.5113   24.0301  -80.3420 C.3       6 UNK        -0.1791 
     42 N         -75.8024   25.7189  -78.7136 N.am      6 UNK        -0.4762 
     43 C         -75.1469   26.7916  -78.2425 C.2       6 UNK         0.5007 
     44 O         -74.1799   27.2965  -78.8134 O.2       6 UNK        -0.5032 
     45 CA        -75.5983   27.3765  -76.8875 C.3       5 UNK         0.0783 
     46 C46       -76.2646   28.7652  -77.0524 C.3       11 UNK        -0.0857 
     47 S47       -76.2422   29.7043  -75.4878 S.3       11 UNK        -0.2512 
     48 C48       -77.8766   29.2858  -74.8086 C.3       11 UNK         0.0225 
     49 N         -76.4158   26.4471  -76.0948 N.am      5 UNK        -0.4615 
     50 C         -75.9748   25.2911  -75.5779 C.2       4 UNK         0.5053 
     51 O         -74.8372   24.8567  -75.7579 O.2       4 UNK        -0.5105 
     52 CA        -76.9812   24.4416  -74.7849 C.3       4 UNK         0.0263 
     53 CB        -76.8856   24.7493  -73.2832 C.3       4 UNK        -0.1981 
     54 N         -78.3681   24.5972  -75.2373 N.am      4 UNK        -0.4224 
     55 C         -78.8156   24.1959  -76.4387 C.2       3 UNK         0.4895 
     56 O         -78.0910   23.6853  -77.2929 O.2       3 UNK        -0.5091 
     57 CA        -80.3092   24.3951  -76.7608 C.3       3 UNK         0.0250 
     58 CB        -81.0869   23.0944  -76.5034 C.3       3 UNK        -0.1996 
     59 N         -80.9426   25.4862  -76.0177 N.am      3 UNK        -0.4254 
     60 C         -80.6234   26.7815  -76.1377 C.2       2 UNK         0.5004 
     61 O         -79.7892   27.2067  -76.9374 O.2       2 UNK        -0.5226 
     62 CA        -81.3223   27.7706  -75.1855 C.3       2 UNK         0.0269 
     63 CB        -82.5240   28.4227  -75.8871 C.3       2 UNK        -0.1926 
     64 N         -81.7602   27.2256  -73.8918 N.am      2 UNK        -0.4687 
     65 C         -81.0116   26.5417  -73.0123 C.2       1 UNK         0.5165 
     66 O         -79.8588   26.1624  -73.2355 O.2       1 UNK        -0.5079 
     67 H67       -80.3128   22.5186  -70.8546 H         1 UNK         0.0900 
     68 H68       -81.1666   22.4066  -69.3145 H         1 UNK         0.0900 
     69 H69       -81.9310   21.8168  -70.7930 H         1 UNK         0.0900 
     70 H70       -80.3380   24.5993  -71.7311 H         1 UNK         0.2959 
     71 H71       -82.7552   26.1771  -71.8226 H         1 UNK         0.1079 
     72 H72       -80.2936   27.1487  -70.2786 H         1 UNK         0.0837 
     73 H73       -81.8799   26.9026  -69.6221 H         1 UNK         0.0837 
     74 H74       -80.5050   30.9285  -70.6276 H         1 UNK         0.0685 
     75 H75       -80.1769   29.7800  -69.3548 H         1 UNK         0.0685 
     76 H76       -79.8124   30.1169  -73.0909 H         1 UNK         0.1434 
     77 H77       -76.0270   28.0867  -73.1573 H         1 UNK         0.1329 
     78 H78       -78.1185   28.6048  -69.4586 H         1 UNK         0.1335 
     79 H79       -75.3600   26.8196  -71.1442 H         1 UNK         0.0680 
     80 H80       -76.2785   26.9704  -69.6738 H         1 UNK         0.0680 
     81 H81       -73.5662   28.0997  -71.8700 H         1 UNK         0.1032 
     82 H82       -72.4623   28.9647  -70.8561 H         1 UNK         0.1032 
     83 H83       -74.8726   30.4445  -71.9604 H         1 UNK         0.0461 
     84 H84       -72.9540   32.5054  -73.1592 H         1 UNK         0.3453 
     85 H85       -72.4370   33.4048  -71.7538 H         1 UNK         0.3453 
     86 H86       -74.3337   30.1686  -74.0505 H         1 UNK         0.2984 
     87 H87       -73.3324   29.4999  -75.8626 H         1 UNK         0.0554 
     88 H88       -72.2125   31.7294  -75.9748 H         1 UNK         0.0847 
     89 H89       -71.7116   30.6951  -77.3006 H         1 UNK         0.0847 
     90 H90       -70.6364   30.9530  -75.9249 H         1 UNK         0.0847 
     91 H91       -70.7897   28.5007  -76.4841 H         1 UNK         0.3141 
     92 H92       -70.4735   26.3651  -76.8723 H         1 UNK         0.0743 
     93 H93       -70.6613   25.0439  -74.0990 H         1 UNK         0.0784 
     94 H94       -69.4617   24.6727  -75.3366 H         1 UNK         0.0784 
     95 H95       -69.4663   26.2485  -74.5619 H         1 UNK         0.0784 
     96 H96       -72.9065   24.9798  -76.1422 H         1 UNK         0.3213 
     97 H97       -72.3114   22.3898  -78.6224 H         1 UNK         0.0855 
     98 H98       -73.4889   22.5921  -75.7983 H         1 UNK         0.0814 
     99 H99       -72.2250   21.4915  -76.3218 H         1 UNK         0.0814 
    100 H100      -73.8456   21.3352  -76.9796 H         1 UNK         0.0814 
    101 H101      -74.5191   24.0739  -77.5666 H         1 UNK         0.3105 
    102 H102      -75.1078   25.6139  -80.6744 H         1 UNK         0.0547 
    103 H103      -76.2312   23.4883  -81.2463 H         1 UNK         0.0837 
    104 H104      -76.7841   23.2872  -79.5919 H         1 UNK         0.0837 
    105 H105      -77.4014   24.6138  -80.5769 H         1 UNK         0.0837 
    106 H106      -76.5834   25.3531  -78.1835 H         1 UNK         0.3020 
    107 H107      -74.6748   27.5271  -76.3311 H         1 UNK         0.1245 
    108 H108      -77.2837   28.6738  -77.4333 H         1 UNK         0.0781 
    109 H109      -75.7239   29.3705  -77.7829 H         1 UNK         0.0781 
    110 H110      -78.2070   28.3336  -75.2153 H         1 UNK         0.0836 
    111 H111      -78.5915   30.0374  -75.1468 H         1 UNK         0.0836 
    112 H112      -77.3820   26.7020  -75.9512 H         1 UNK         0.3022 
    113 H113      -76.7013   23.3960  -74.9304 H         1 UNK         0.0747 
    114 H114      -77.5050   24.0689  -72.6989 H         1 UNK         0.0793 
    115 H115      -75.8602   24.6451  -72.9253 H         1 UNK         0.0793 
    116 H116      -77.2078   25.7655  -73.0603 H         1 UNK         0.0793 
    117 H117      -79.0087   25.0514  -74.5913 H         1 UNK         0.3047 
    118 H118      -80.3806   24.6328  -77.8244 H         1 UNK         0.0822 
    119 H119      -82.1283   23.1858  -76.8125 H         1 UNK         0.0807 
    120 H120      -81.0710   22.8159  -75.4488 H         1 UNK         0.0807 
    121 H121      -80.6563   22.2645  -77.0660 H         1 UNK         0.0807 
    122 H122      -81.6367   25.2305  -75.3307 H         1 UNK         0.2946 
    123 H123      -80.6016   28.5569  -74.9643 H         1 UNK         0.1144 
    124 H124      -82.2292   28.8642  -76.8404 H         1 UNK         0.0793 
    125 H125      -82.9518   29.2229  -75.2826 H         1 UNK         0.0793 
    126 H126      -83.3125   27.6978  -76.0936 H         1 UNK         0.0793 
    127 H127      -82.6960   27.4812  -73.6097 H         1 UNK         0.2896 
@<TRIPOS>BOND
     1    1    2 1    
     2    1   67 1    
     3    1   68 1    
     4    1   69 1    
     5    2    3 2    
     6    2    4 am   BACKBONE|DICT|INTERRES
     7    4    5 1    
     8    4   70 1    
     9    5    6 1    
    10    5   65 1    
    11    5   71 1    
    12    6    7 1    
    13    6   72 1    
    14    6   73 1    
    15    7    8 1    
    16    8    9 1    
    17    8   74 1    
    18    8   75 1    
    19    9   10 ar   
    20    9   14 ar   
    21   10   11 ar   
    22   10   76 1    
    23   11   12 ar   
    24   11   48 1    
    25   12   13 ar   
    26   12   77 1    
    27   13   14 ar   
    28   13   15 1    
    29   14   78 1    
    30   15   16 1    
    31   15   79 1    
    32   15   80 1    
    33   16   17 1    
    34   17   18 1    
    35   17   81 1    
    36   17   82 1    
    37   18   19 1    
    38   18   22 1    
    39   18   83 1    
    40   19   20 am   BACKBONE|DICT|INTERRES
    41   19   21 2    
    42   20   84 1    
    43   20   85 1    
    44   22   23 am   BACKBONE|DICT|INTERRES
    45   22   86 1    
    46   23   24 2    
    47   23   25 1    
    48   25   26 1    
    49   25   27 1    
    50   25   87 1    
    51   26   88 1    
    52   26   89 1    
    53   26   90 1    
    54   27   28 am   BACKBONE|DICT|INTERRES
    55   27   91 1    
    56   28   29 2    
    57   28   30 1    
    58   30   31 1    
    59   30   32 1    
    60   30   92 1    
    61   31   93 1    
    62   31   94 1    
    63   31   95 1    
    64   32   33 am   BACKBONE|DICT|INTERRES
    65   32   96 1    
    66   33   34 2    
    67   33   35 1    
    68   35   36 1    
    69   35   37 1    
    70   35   97 1    
    71   36   98 1    
    72   36   99 1    
    73   36  100 1    
    74   37   38 am   BACKBONE|DICT|INTERRES
    75   37  101 1    
    76   38   39 2    
    77   38   40 1    
    78   40   41 1    
    79   40   42 1    
    80   40  102 1    
    81   41  103 1    
    82   41  104 1    
    83   41  105 1    
    84   42   43 am   BACKBONE|DICT|INTERRES
    85   42  106 1    
    86   43   44 2    
    87   43   45 1    
    88   45   46 1    
    89   45   49 1    
    90   45  107 1    
    91   46   47 1    
    92   46  108 1    
    93   46  109 1    
    94   47   48 1    
    95   48  110 1    
    96   48  111 1    
    97   49   50 am   BACKBONE|DICT|INTERRES
    98   49  112 1    
    99   50   51 2    
   100   50   52 1    
   101   52   53 1    
   102   52   54 1    
   103   52  113 1    
   104   53  114 1    
   105   53  115 1    
   106   53  116 1    
   107   54   55 am   BACKBONE|DICT|INTERRES
   108   54  117 1    
   109   55   56 2    
   110   55   57 1    
   111   57   58 1    
   112   57   59 1    
   113   57  118 1    
   114   58  119 1    
   115   58  120 1    
   116   58  121 1    
   117   59   60 am   BACKBONE|DICT|INTERRES
   118   59  122 1    
   119   60   61 2    
   120   60   62 1    
   121   62   63 1    
   122   62   64 1    
   123   62  123 1    
   124   63  124 1    
   125   63  125 1    
   126   63  126 1    
   127   64   65 am   BACKBONE|DICT|INTERRES
   128   64  127 1    
   129   65   66 2    
@<TRIPOS>SUBSTRUCTURE
     1 UNK         1 GROUP             0       ****    0 ROOT    
