@<TRIPOS>MOLECULE
3R135
127   129    1
SMALL
USER_CHARGES


@<TRIPOS>ATOM
      1 CA        -76.9786   28.0503  -74.8546 C.3       0 UNK        -0.1998 
      2 C         -77.6282   29.4300  -74.9624 C.2       0 UNK         0.4909 
      3 O         -77.0419   30.3257  -75.5662 O.2       0 UNK        -0.5240 
      4 N         -78.8216   29.6600  -74.3967 N.am      1 UNK        -0.4739 
      5 CA        -79.7052   28.6732  -73.7638 C.3       1 UNK         0.0864 
      6 C6        -80.8337   29.3415  -72.9327 C.3       11 UNK        -0.0881 
      7 S7        -80.2438   30.5416  -71.6911 S.3       11 UNK        -0.2682 
      8 C8        -80.0520   29.4968  -70.2094 C.3       11 UNK         0.0289 
      9 C9        -78.8483   28.5730  -70.3239 C.ar      11 UNK        -0.0687 
     10 C10       -79.0075   27.1843  -70.3106 C.ar      11 UNK        -0.0823 
     11 C11       -77.8984   26.3415  -70.4430 C.ar      11 UNK        -0.0830 
     12 C12       -76.6226   26.8980  -70.5960 C.ar      11 UNK        -0.1021 
     13 C13       -76.4521   28.2866  -70.5980 C.ar      11 UNK        -0.0753 
     14 C14       -77.5669   29.1146  -70.4480 C.ar      11 UNK        -0.0933 
     15 C15       -75.0741   28.9099  -70.7644 C.3       11 UNK         0.0166 
     16 S16       -74.9537   29.7716  -72.3596 S.3       11 UNK        -0.2615 
     17 C17       -73.2957   30.5227  -72.2584 C.3       11 UNK        -0.0865 
     18 CA        -73.0827   31.5829  -73.3707 C.3       10 UNK         0.0862 
     19 C         -71.7166   32.2984  -73.2059 C.2       10 UNK         0.5551 
     20 N         -71.6847   33.4076  -72.4794 N.am      10 UNK        -0.7319 
     21 O         -70.6823   31.8397  -73.6867 O.2       10 UNK        -0.5018 
     22 N         -73.2431   30.9999  -74.7100 N.am      10 UNK        -0.4509 
     23 C         -73.5622   31.6928  -75.8110 C.2       10 UNK         0.4899 
     24 O         -73.7318   32.9138  -75.8168 O.2       10 UNK        -0.4839 
     25 CA        -73.7663   30.8920  -77.1168 C.3       9 UNK         0.0222 
     26 CB        -73.6067   31.7566  -78.3867 C.3       9 UNK        -0.1966 
     27 N         -72.9543   29.6719  -77.1961 N.am      9 UNK        -0.4218 
     28 C         -71.6162   29.5859  -77.2326 C.2       9 UNK         0.5020 
     29 O         -70.8663   30.5612  -77.3066 O.2       9 UNK        -0.5274 
     30 CA        -71.0185   28.1621  -77.1745 C.3       8 UNK         0.0270 
     31 CB        -69.5654   28.1602  -76.6535 C.3       8 UNK        -0.1976 
     32 N         -71.8207   27.1881  -76.4154 N.am      8 UNK        -0.4313 
     33 C         -72.2473   27.2885  -75.1484 C.2       8 UNK         0.5041 
     34 O         -72.1190   28.3043  -74.4666 O.2       8 UNK        -0.5577 
     35 CA        -72.9469   26.0512  -74.5542 C.3       7 UNK         0.0284 
     36 CB        -73.3967   26.2620  -73.0960 C.3       7 UNK        -0.1958 
     37 N         -74.1051   25.6054  -75.3304 N.am      7 UNK        -0.4454 
     38 C         -74.0713   24.9157  -76.4777 C.2       7 UNK         0.5089 
     39 O         -73.0374   24.7237  -77.1213 O.2       7 UNK        -0.5125 
     40 CA        -75.4160   24.3315  -76.9662 C.3       6 UNK         0.0408 
     41 CB        -75.2206   23.1367  -77.9211 C.3       6 UNK        -0.1791 
     42 N         -76.3378   23.9678  -75.8766 N.am      6 UNK        -0.4762 
     43 C         -76.0863   23.1569  -74.8319 C.2       6 UNK         0.5007 
     44 O         -75.0221   22.5661  -74.6472 O.2       6 UNK        -0.5032 
     45 CA        -77.2307   22.9883  -73.8215 C.3       5 UNK         0.0783 
     46 C46       -77.5514   24.3377  -73.1241 C.3       11 UNK        -0.0857 
     47 S47       -78.8916   24.1961  -71.8987 S.3       11 UNK        -0.2512 
     48 C48       -78.0858   24.8307  -70.3947 C.3       11 UNK         0.0225 
     49 N         -78.3798   22.4012  -74.5117 N.am      5 UNK        -0.4615 
     50 C         -78.5339   21.0895  -74.7455 C.2       4 UNK         0.5053 
     51 O         -77.7689   20.2259  -74.3157 O.2       4 UNK        -0.5105 
     52 CA        -79.7423   20.6532  -75.5964 C.3       4 UNK         0.0263 
     53 CB        -80.8993   20.2044  -74.6888 C.3       4 UNK        -0.1981 
     54 N         -80.2202   21.7057  -76.4937 N.am      4 UNK        -0.4224 
     55 C         -79.5759   22.1377  -77.5882 C.2       3 UNK         0.4895 
     56 O         -78.5743   21.5947  -78.0525 O.2       3 UNK        -0.5091 
     57 CA        -80.1247   23.4146  -78.2563 C.3       3 UNK         0.0250 
     58 CB        -81.0146   23.0563  -79.4572 C.3       3 UNK        -0.1996 
     59 N         -80.8764   24.2722  -77.3297 N.am      3 UNK        -0.4254 
     60 C         -80.3383   24.8892  -76.2687 C.2       2 UNK         0.5004 
     61 O         -79.1326   24.8666  -76.0059 O.2       2 UNK        -0.5226 
     62 CA        -81.3288   25.5342  -75.2868 C.3       2 UNK         0.0269 
     63 CB        -81.9726   24.4555  -74.3982 C.3       2 UNK        -0.1926 
     64 N         -80.6823   26.5227  -74.4223 N.am      2 UNK        -0.4687 
     65 C         -80.3371   27.7503  -74.8259 C.2       1 UNK         0.5165 
     66 O         -80.5476   28.1756  -75.9652 O.2       1 UNK        -0.5079 
     67 H67       -76.9641   27.7000  -73.8228 H         1 UNK         0.0900 
     68 H68       -75.9439   28.0980  -75.1935 H         1 UNK         0.0900 
     69 H69       -77.5016   27.3220  -75.4741 H         1 UNK         0.0900 
     70 H70       -79.2154   30.5859  -74.4757 H         1 UNK         0.2959 
     71 H71       -79.1056   28.0596  -73.0904 H         1 UNK         0.1079 
     72 H72       -81.5212   29.8768  -73.5913 H         1 UNK         0.0837 
     73 H73       -81.4373   28.5852  -72.4269 H         1 UNK         0.0837 
     74 H74       -79.9184   30.1421  -69.3401 H         1 UNK         0.0685 
     75 H75       -80.9705   28.9340  -70.0359 H         1 UNK         0.0685 
     76 H76       -79.9941   26.7547  -70.2008 H         1 UNK         0.1434 
     77 H77       -75.7619   26.2523  -70.7041 H         1 UNK         0.1329 
     78 H78       -77.4391   30.1886  -70.4584 H         1 UNK         0.1335 
     79 H79       -74.8964   29.6164  -69.9523 H         1 UNK         0.0680 
     80 H80       -74.2910   28.1528  -70.7013 H         1 UNK         0.0680 
     81 H81       -72.5429   29.7349  -72.3193 H         1 UNK         0.1032 
     82 H82       -73.1836   30.9800  -71.2735 H         1 UNK         0.1032 
     83 H83       -73.8648   32.3359  -73.2496 H         1 UNK         0.0461 
     84 H84       -72.5248   33.7890  -72.0727 H         1 UNK         0.3453 
     85 H85       -70.8045   33.8804  -72.3451 H         1 UNK         0.3453 
     86 H86       -73.0231   30.0103  -74.7785 H         1 UNK         0.2984 
     87 H87       -74.8016   30.5507  -77.0916 H         1 UNK         0.0554 
     88 H88       -74.3348   32.5686  -78.3999 H         1 UNK         0.0847 
     89 H89       -73.7643   31.1691  -79.2910 H         1 UNK         0.0847 
     90 H90       -72.6171   32.2102  -78.4479 H         1 UNK         0.0847 
     91 H91       -73.4660   28.8037  -77.1296 H         1 UNK         0.3141 
     92 H92       -71.0006   27.8034  -78.2046 H         1 UNK         0.0743 
     93 H93       -69.1474   27.1536  -76.6446 H         1 UNK         0.0784 
     94 H94       -69.5037   28.5588  -75.6400 H         1 UNK         0.0784 
     95 H95       -68.9185   28.7711  -77.2845 H         1 UNK         0.0784 
     96 H96       -72.0364   26.3140  -76.8923 H         1 UNK         0.3213 
     97 H97       -72.2067   25.2479  -74.5539 H         1 UNK         0.0855 
     98 H98       -74.1827   27.0133  -73.0258 H         1 UNK         0.0814 
     99 H99       -72.5678   26.5959  -72.4703 H         1 UNK         0.0814 
    100 H100      -73.7763   25.3378  -72.6599 H         1 UNK         0.0814 
    101 H101      -75.0061   25.7290  -74.8958 H         1 UNK         0.3105 
    102 H102      -75.9065   25.1279  -77.5275 H         1 UNK         0.0547 
    103 H103      -74.6278   23.4196  -78.7917 H         1 UNK         0.0837 
    104 H104      -74.7069   22.3089  -77.4314 H         1 UNK         0.0837 
    105 H105      -76.1754   22.7660  -78.2916 H         1 UNK         0.0837 
    106 H106      -77.2707   24.3716  -75.9420 H         1 UNK         0.3020 
    107 H107      -76.8890   22.2919  -73.0516 H         1 UNK         0.1245 
    108 H108      -76.6550   24.7203  -72.6333 H         1 UNK         0.0781 
    109 H109      -77.8442   25.1060  -73.8390 H         1 UNK         0.0781 
    110 H110      -77.1337   24.3194  -70.2438 H         1 UNK         0.0836 
    111 H111      -78.7043   24.5762  -69.5328 H         1 UNK         0.0836 
    112 H112      -79.0128   23.0611  -74.9429 H         1 UNK         0.3022 
    113 H113      -79.4293   19.8009  -76.2033 H         1 UNK         0.0747 
    114 H114      -81.7416   19.8326  -75.2727 H         1 UNK         0.0793 
    115 H115      -80.5842   19.3960  -74.0275 H         1 UNK         0.0793 
    116 H116      -81.2589   21.0187  -74.0581 H         1 UNK         0.0793 
    117 H117      -81.0596   22.1905  -76.2151 H         1 UNK         0.3047 
    118 H118      -79.2668   23.9844  -78.6205 H         1 UNK         0.0822 
    119 H119      -81.3460   23.9498  -79.9866 H         1 UNK         0.0807 
    120 H120      -81.9001   22.4966  -79.1531 H         1 UNK         0.0807 
    121 H121      -80.4708   22.4404  -80.1750 H         1 UNK         0.0807 
    122 H122      -81.8734   24.3353  -77.4816 H         1 UNK         0.2946 
    123 H123      -82.1127   26.0326  -75.8625 H         1 UNK         0.1144 
    124 H124      -82.6682   24.8954  -73.6832 H         1 UNK         0.0793 
    125 H125      -81.2267   23.8944  -73.8340 H         1 UNK         0.0793 
    126 H126      -82.5405   23.7385  -74.9921 H         1 UNK         0.0793 
    127 H127      -80.4566   26.2209  -73.4851 H         1 UNK         0.2896 
@<TRIPOS>BOND
     1    1    2 1    
     2    1   67 1    
     3    1   68 1    
     4    1   69 1    
     5    2    3 2    
     6    2    4 am   BACKBONE|DICT|INTERRES
     7    4    5 1    
     8    4   70 1    
     9    5    6 1    
    10    5   65 1    
    11    5   71 1    
    12    6    7 1    
    13    6   72 1    
    14    6   73 1    
    15    7    8 1    
    16    8    9 1    
    17    8   74 1    
    18    8   75 1    
    19    9   10 ar   
    20    9   14 ar   
    21   10   11 ar   
    22   10   76 1    
    23   11   12 ar   
    24   11   48 1    
    25   12   13 ar   
    26   12   77 1    
    27   13   14 ar   
    28   13   15 1    
    29   14   78 1    
    30   15   16 1    
    31   15   79 1    
    32   15   80 1    
    33   16   17 1    
    34   17   18 1    
    35   17   81 1    
    36   17   82 1    
    37   18   19 1    
    38   18   22 1    
    39   18   83 1    
    40   19   20 am   BACKBONE|DICT|INTERRES
    41   19   21 2    
    42   20   84 1    
    43   20   85 1    
    44   22   23 am   BACKBONE|DICT|INTERRES
    45   22   86 1    
    46   23   24 2    
    47   23   25 1    
    48   25   26 1    
    49   25   27 1    
    50   25   87 1    
    51   26   88 1    
    52   26   89 1    
    53   26   90 1    
    54   27   28 am   BACKBONE|DICT|INTERRES
    55   27   91 1    
    56   28   29 2    
    57   28   30 1    
    58   30   31 1    
    59   30   32 1    
    60   30   92 1    
    61   31   93 1    
    62   31   94 1    
    63   31   95 1    
    64   32   33 am   BACKBONE|DICT|INTERRES
    65   32   96 1    
    66   33   34 2    
    67   33   35 1    
    68   35   36 1    
    69   35   37 1    
    70   35   97 1    
    71   36   98 1    
    72   36   99 1    
    73   36  100 1    
    74   37   38 am   BACKBONE|DICT|INTERRES
    75   37  101 1    
    76   38   39 2    
    77   38   40 1    
    78   40   41 1    
    79   40   42 1    
    80   40  102 1    
    81   41  103 1    
    82   41  104 1    
    83   41  105 1    
    84   42   43 am   BACKBONE|DICT|INTERRES
    85   42  106 1    
    86   43   44 2    
    87   43   45 1    
    88   45   46 1    
    89   45   49 1    
    90   45  107 1    
    91   46   47 1    
    92   46  108 1    
    93   46  109 1    
    94   47   48 1    
    95   48  110 1    
    96   48  111 1    
    97   49   50 am   BACKBONE|DICT|INTERRES
    98   49  112 1    
    99   50   51 2    
   100   50   52 1    
   101   52   53 1    
   102   52   54 1    
   103   52  113 1    
   104   53  114 1    
   105   53  115 1    
   106   53  116 1    
   107   54   55 am   BACKBONE|DICT|INTERRES
   108   54  117 1    
   109   55   56 2    
   110   55   57 1    
   111   57   58 1    
   112   57   59 1    
   113   57  118 1    
   114   58  119 1    
   115   58  120 1    
   116   58  121 1    
   117   59   60 am   BACKBONE|DICT|INTERRES
   118   59  122 1    
   119   60   61 2    
   120   60   62 1    
   121   62   63 1    
   122   62   64 1    
   123   62  123 1    
   124   63  124 1    
   125   63  125 1    
   126   63  126 1    
   127   64   65 am   BACKBONE|DICT|INTERRES
   128   64  127 1    
   129   65   66 2    
@<TRIPOS>SUBSTRUCTURE
     1 UNK         1 GROUP             0       ****    0 ROOT    
