@<TRIPOS>MOLECULE
3R135
127   129    1
SMALL
USER_CHARGES


@<TRIPOS>ATOM
      1 CA        -82.3763   32.3776  -75.1622 C.3       0 UNK        -0.1998 
      2 C         -82.1740   30.9029  -74.8492 C.2       0 UNK         0.4909 
      3 O         -83.0994   30.1104  -75.0312 O.2       0 UNK        -0.5240 
      4 N         -80.9683   30.5346  -74.3917 N.am      1 UNK        -0.4739 
      5 CA        -80.5112   29.1886  -74.0013 C.3       1 UNK         0.0864 
      6 C6        -81.3604   28.5166  -72.8866 C.3       11 UNK        -0.0881 
      7 S7        -81.4367   29.5325  -71.3709 S.3       11 UNK        -0.2682 
      8 C8        -80.6358   28.4531  -70.1365 C.3       11 UNK         0.0289 
      9 C9        -79.2006   28.0712  -70.4869 C.ar      11 UNK        -0.0687 
     10 C10       -78.7835   26.7433  -70.3466 C.ar      11 UNK        -0.0823 
     11 C11       -77.4685   26.3734  -70.6448 C.ar      11 UNK        -0.0830 
     12 C12       -76.5673   27.3438  -71.0940 C.ar      11 UNK        -0.1021 
     13 C13       -76.9660   28.6768  -71.2240 C.ar      11 UNK        -0.0753 
     14 C14       -78.2806   29.0357  -70.9140 C.ar      11 UNK        -0.0933 
     15 C15       -75.9687   29.7318  -71.6744 C.3       11 UNK         0.0166 
     16 S16       -75.8853   29.8259  -73.4867 S.3       11 UNK        -0.2615 
     17 C17       -74.6388   31.1423  -73.7160 C.3       11 UNK        -0.0865 
     18 CA        -73.2231   30.6283  -74.1227 C.3       10 UNK         0.0862 
     19 C         -72.4351   30.0117  -72.9310 C.2       10 UNK         0.5551 
     20 N         -71.7025   28.9163  -73.0834 N.am      10 UNK        -0.7319 
     21 O         -72.4653   30.5575  -71.8307 O.2       10 UNK        -0.5018 
     22 N         -73.2338   29.8141  -75.3505 N.am      10 UNK        -0.4509 
     23 C         -73.5189   30.2916  -76.5691 C.2       10 UNK         0.4899 
     24 O         -73.7364   31.4825  -76.8018 O.2       10 UNK        -0.4839 
     25 CA        -73.5825   29.2638  -77.7164 C.3       9 UNK         0.0222 
     26 CB        -73.8696   29.9037  -79.0921 C.3       9 UNK        -0.1966 
     27 N         -72.3959   28.4051  -77.7777 N.am      9 UNK        -0.4218 
     28 C         -71.1184   28.7852  -77.9535 C.2       9 UNK         0.5020 
     29 O         -70.7726   29.9520  -78.1478 O.2       9 UNK        -0.5274 
     30 CA        -70.0383   27.6772  -77.9244 C.3       8 UNK         0.0270 
     31 CB        -68.6980   28.1815  -77.3461 C.3       8 UNK        -0.1976 
     32 N         -70.4568   26.4384  -77.2506 N.am      8 UNK        -0.4313 
     33 C         -70.8647   26.3218  -75.9801 C.2       8 UNK         0.5041 
     34 O         -70.9092   27.2581  -75.1791 O.2       8 UNK        -0.5577 
     35 CA        -71.3854   24.9411  -75.5492 C.3       7 UNK         0.0284 
     36 CB        -70.4024   24.2676  -74.5792 C.3       7 UNK        -0.1958 
     37 N         -72.6978   25.0549  -74.9093 N.am      7 UNK        -0.4454 
     38 C         -73.7873   25.6008  -75.4638 C.2       7 UNK         0.5089 
     39 O         -73.8388   25.9810  -76.6364 O.2       7 UNK        -0.5125 
     40 CA        -75.0097   25.7505  -74.5428 C.3       6 UNK         0.0408 
     41 CB        -76.1019   26.6360  -75.1626 C.3       6 UNK        -0.1791 
     42 N         -75.5909   24.4565  -74.1844 N.am      6 UNK        -0.4762 
     43 C         -75.0925   23.6039  -73.2749 C.2       6 UNK         0.5007 
     44 O         -74.0437   23.8091  -72.6607 O.2       6 UNK        -0.5032 
     45 CA        -75.9023   22.3219  -72.9690 C.3       5 UNK         0.0783 
     46 C46       -76.6333   22.4159  -71.6046 C.3       11 UNK        -0.0857 
     47 S47       -77.8709   23.7620  -71.5234 S.3       11 UNK        -0.2512 
     48 C48       -77.0034   24.9392  -70.4371 C.3       11 UNK         0.0225 
     49 N         -76.8344   21.9591  -74.0382 N.am      5 UNK        -0.4615 
     50 C         -76.4874   21.4800  -75.2388 C.2       4 UNK         0.5053 
     51 O         -75.3263   21.2271  -75.5602 O.2       4 UNK        -0.5105 
     52 CA        -77.6199   21.2433  -76.2578 C.3       4 UNK         0.0263 
     53 CB        -77.9138   19.7398  -76.3902 C.3       4 UNK        -0.1981 
     54 N         -78.8742   21.9515  -75.9648 N.am      4 UNK        -0.4224 
     55 C         -79.0170   23.2832  -75.9290 C.2       3 UNK         0.4895 
     56 O         -78.0839   24.0755  -76.0753 O.2       3 UNK        -0.5091 
     57 CA        -80.4275   23.8096  -75.6427 C.3       3 UNK         0.0250 
     58 CB        -80.7214   23.8015  -74.1324 C.3       3 UNK        -0.1996 
     59 N         -80.5307   25.1772  -76.1389 N.am      3 UNK        -0.4254 
     60 C         -81.5899   25.7205  -76.7447 C.2       2 UNK         0.5004 
     61 O         -82.6516   25.1230  -76.9340 O.2       2 UNK        -0.5226 
     62 CA        -81.4382   27.1909  -77.1822 C.3       2 UNK         0.0269 
     63 CB        -82.5787   27.6558  -78.1068 C.3       2 UNK        -0.1926 
     64 N         -81.3790   28.0863  -76.0253 N.am      2 UNK        -0.4687 
     65 C         -80.3313   28.2461  -75.2080 C.2       1 UNK         0.5165 
     66 O         -79.2500   27.6869  -75.3860 O.2       1 UNK        -0.5079 
     67 H67       -82.6357   32.5058  -76.2127 H         1 UNK         0.0900 
     68 H68       -83.1895   32.7796  -74.5586 H         1 UNK         0.0900 
     69 H69       -81.4813   32.9654  -74.9592 H         1 UNK         0.0900 
     70 H70       -80.2611   31.2500  -74.2953 H         1 UNK         0.2959 
     71 H71       -79.5084   29.3330  -73.5939 H         1 UNK         0.1079 
     72 H72       -80.9518   27.5344  -72.6405 H         1 UNK         0.0837 
     73 H73       -82.3810   28.3338  -73.2259 H         1 UNK         0.0837 
     74 H74       -81.2523   27.5617  -70.0095 H         1 UNK         0.0685 
     75 H75       -80.6339   28.9657  -69.1738 H         1 UNK         0.0685 
     76 H76       -79.4789   25.9922  -69.9969 H         1 UNK         0.1434 
     77 H77       -75.5477   27.0686  -71.3276 H         1 UNK         0.1329 
     78 H78       -78.5896   30.0677  -71.0080 H         1 UNK         0.1335 
     79 H79       -76.2443   30.7078  -71.2721 H         1 UNK         0.0680 
     80 H80       -74.9809   29.4993  -71.2745 H         1 UNK         0.0680 
     81 H81       -75.0173   31.8123  -74.4886 H         1 UNK         0.1032 
     82 H82       -74.5848   31.7630  -72.8198 H         1 UNK         0.1032 
     83 H83       -72.6341   31.5149  -74.3650 H         1 UNK         0.0461 
     84 H84       -71.2095   28.5683  -72.2776 H         1 UNK         0.3453 
     85 H85       -71.5499   28.4522  -73.9763 H         1 UNK         0.3453 
     86 H86       -73.0290   28.8323  -75.2335 H         1 UNK         0.2984 
     87 H87       -74.4212   28.6057  -77.4852 H         1 UNK         0.0554 
     88 H88       -74.8121   30.4525  -79.0773 H         1 UNK         0.0847 
     89 H89       -73.9490   29.1474  -79.8728 H         1 UNK         0.0847 
     90 H90       -73.0899   30.6076  -79.3847 H         1 UNK         0.0847 
     91 H91       -72.5774   27.4245  -77.5909 H         1 UNK         0.3141 
     92 H92       -69.8645   27.4084  -78.9673 H         1 UNK         0.0743 
     93 H93       -68.3006   29.0080  -77.9365 H         1 UNK         0.0784 
     94 H94       -68.8090   28.5388  -76.3218 H         1 UNK         0.0784 
     95 H95       -67.9438   27.3947  -77.3470 H         1 UNK         0.0784 
     96 H96       -70.4840   25.6151  -77.8379 H         1 UNK         0.3213 
     97 H97       -71.5005   24.3054  -76.4295 H         1 UNK         0.0855 
     98 H98       -70.2681   24.8557  -73.6702 H         1 UNK         0.0814 
     99 H99       -69.4202   24.1490  -75.0387 H         1 UNK         0.0814 
    100 H100      -70.7468   23.2747  -74.2891 H         1 UNK         0.0814 
    101 H101      -72.7775   24.7357  -73.9494 H         1 UNK         0.3105 
    102 H102      -74.6708   26.2464  -73.6307 H         1 UNK         0.0547 
    103 H103      -76.5248   26.1938  -76.0646 H         1 UNK         0.0837 
    104 H104      -75.7051   27.6122  -75.4405 H         1 UNK         0.0837 
    105 H105      -76.9144   26.8069  -74.4562 H         1 UNK         0.0837 
    106 H106      -76.4427   24.2024  -74.6730 H         1 UNK         0.3020 
    107 H107      -75.1696   21.5149  -72.8926 H         1 UNK         0.1245 
    108 H108      -75.9097   22.5232  -70.7944 H         1 UNK         0.0781 
    109 H109      -77.1489   21.4760  -71.4012 H         1 UNK         0.0781 
    110 H110      -75.9282   24.8716  -70.6095 H         1 UNK         0.0836 
    111 H111      -77.1644   24.6517  -69.3972 H         1 UNK         0.0836 
    112 H112      -77.8093   22.1452  -73.8558 H         1 UNK         0.3022 
    113 H113      -77.2576   21.6061  -77.2221 H         1 UNK         0.0747 
    114 H114      -78.6396   19.5439  -77.1797 H         1 UNK         0.0793 
    115 H115      -77.0089   19.1845  -76.6420 H         1 UNK         0.0793 
    116 H116      -78.3041   19.3217  -75.4614 H         1 UNK         0.0793 
    117 H117      -79.6890   21.3734  -75.8139 H         1 UNK         0.3047 
    118 H118      -81.1443   23.1687  -76.1608 H         1 UNK         0.0822 
    119 H119      -81.7359   24.1435  -73.9268 H         1 UNK         0.0807 
    120 H120      -80.0358   24.4523  -73.5879 H         1 UNK         0.0807 
    121 H121      -80.6268   22.7993  -73.7126 H         1 UNK         0.0807 
    122 H122      -79.6944   25.7422  -76.0191 H         1 UNK         0.2946 
    123 H123      -80.5017   27.2718  -77.7392 H         1 UNK         0.1144 
    124 H124      -82.4129   28.6743  -78.4583 H         1 UNK         0.0793 
    125 H125      -83.5450   27.6301  -77.6013 H         1 UNK         0.0793 
    126 H126      -82.6526   27.0173  -78.9882 H         1 UNK         0.0793 
    127 H127      -82.2204   28.6117  -75.8005 H         1 UNK         0.2896 
@<TRIPOS>BOND
     1    1    2 1    
     2    1   67 1    
     3    1   68 1    
     4    1   69 1    
     5    2    3 2    
     6    2    4 am   BACKBONE|DICT|INTERRES
     7    4    5 1    
     8    4   70 1    
     9    5    6 1    
    10    5   65 1    
    11    5   71 1    
    12    6    7 1    
    13    6   72 1    
    14    6   73 1    
    15    7    8 1    
    16    8    9 1    
    17    8   74 1    
    18    8   75 1    
    19    9   10 ar   
    20    9   14 ar   
    21   10   11 ar   
    22   10   76 1    
    23   11   12 ar   
    24   11   48 1    
    25   12   13 ar   
    26   12   77 1    
    27   13   14 ar   
    28   13   15 1    
    29   14   78 1    
    30   15   16 1    
    31   15   79 1    
    32   15   80 1    
    33   16   17 1    
    34   17   18 1    
    35   17   81 1    
    36   17   82 1    
    37   18   19 1    
    38   18   22 1    
    39   18   83 1    
    40   19   20 am   BACKBONE|DICT|INTERRES
    41   19   21 2    
    42   20   84 1    
    43   20   85 1    
    44   22   23 am   BACKBONE|DICT|INTERRES
    45   22   86 1    
    46   23   24 2    
    47   23   25 1    
    48   25   26 1    
    49   25   27 1    
    50   25   87 1    
    51   26   88 1    
    52   26   89 1    
    53   26   90 1    
    54   27   28 am   BACKBONE|DICT|INTERRES
    55   27   91 1    
    56   28   29 2    
    57   28   30 1    
    58   30   31 1    
    59   30   32 1    
    60   30   92 1    
    61   31   93 1    
    62   31   94 1    
    63   31   95 1    
    64   32   33 am   BACKBONE|DICT|INTERRES
    65   32   96 1    
    66   33   34 2    
    67   33   35 1    
    68   35   36 1    
    69   35   37 1    
    70   35   97 1    
    71   36   98 1    
    72   36   99 1    
    73   36  100 1    
    74   37   38 am   BACKBONE|DICT|INTERRES
    75   37  101 1    
    76   38   39 2    
    77   38   40 1    
    78   40   41 1    
    79   40   42 1    
    80   40  102 1    
    81   41  103 1    
    82   41  104 1    
    83   41  105 1    
    84   42   43 am   BACKBONE|DICT|INTERRES
    85   42  106 1    
    86   43   44 2    
    87   43   45 1    
    88   45   46 1    
    89   45   49 1    
    90   45  107 1    
    91   46   47 1    
    92   46  108 1    
    93   46  109 1    
    94   47   48 1    
    95   48  110 1    
    96   48  111 1    
    97   49   50 am   BACKBONE|DICT|INTERRES
    98   49  112 1    
    99   50   51 2    
   100   50   52 1    
   101   52   53 1    
   102   52   54 1    
   103   52  113 1    
   104   53  114 1    
   105   53  115 1    
   106   53  116 1    
   107   54   55 am   BACKBONE|DICT|INTERRES
   108   54  117 1    
   109   55   56 2    
   110   55   57 1    
   111   57   58 1    
   112   57   59 1    
   113   57  118 1    
   114   58  119 1    
   115   58  120 1    
   116   58  121 1    
   117   59   60 am   BACKBONE|DICT|INTERRES
   118   59  122 1    
   119   60   61 2    
   120   60   62 1    
   121   62   63 1    
   122   62   64 1    
   123   62  123 1    
   124   63  124 1    
   125   63  125 1    
   126   63  126 1    
   127   64   65 am   BACKBONE|DICT|INTERRES
   128   64  127 1    
   129   65   66 2    
@<TRIPOS>SUBSTRUCTURE
     1 UNK         1 GROUP             0       ****    0 ROOT    
