@<TRIPOS>MOLECULE
3R135
127   129    1
SMALL
USER_CHARGES


@<TRIPOS>ATOM
      1 CA        -78.0419   30.9578  -78.8512 C.3       0 UNK        -0.1998 
      2 C         -78.4691   29.6625  -78.1773 C.2       0 UNK         0.4909 
      3 O         -78.3994   28.6027  -78.8004 O.2       0 UNK        -0.5240 
      4 N         -78.9061   29.7469  -76.9123 N.am      1 UNK        -0.4739 
      5 CA        -79.3563   28.6151  -76.0934 C.3       1 UNK         0.0864 
      6 C6        -79.5777   29.0424  -74.6184 C.3       11 UNK        -0.0881 
      7 S7        -79.3995   27.6446  -73.4566 S.3       11 UNK        -0.2682 
      8 C8        -79.1317   28.5047  -71.8645 C.3       11 UNK         0.0289 
      9 C9        -77.8177   28.1536  -71.1625 C.ar      11 UNK        -0.0687 
     10 C10       -77.2895   26.8565  -71.2041 C.ar      11 UNK        -0.0823 
     11 C11       -76.1338   26.5305  -70.4869 C.ar      11 UNK        -0.0830 
     12 C12       -75.5053   27.5119  -69.7154 C.ar      11 UNK        -0.1021 
     13 C13       -76.0246   28.8083  -69.6509 C.ar      11 UNK        -0.0753 
     14 C14       -77.1706   29.1256  -70.3887 C.ar      11 UNK        -0.0933 
     15 C15       -75.4058   29.8260  -68.6993 C.3       11 UNK         0.0166 
     16 S16       -73.7895   30.4482  -69.2620 S.3       11 UNK        -0.2615 
     17 C17       -74.2623   31.8140  -70.3846 C.3       11 UNK        -0.0865 
     18 CA        -73.6891   31.6636  -71.8175 C.3       10 UNK         0.0862 
     19 C         -72.1545   31.9358  -71.8832 C.2       10 UNK         0.5551 
     20 N         -71.3306   31.0271  -72.3931 N.am      10 UNK        -0.7319 
     21 O         -71.7052   33.0040  -71.4747 O.2       10 UNK        -0.5018 
     22 N         -74.1294   30.3990  -72.4155 N.am      10 UNK        -0.4509 
     23 C         -74.1622   30.1232  -73.7206 C.2       10 UNK         0.4899 
     24 O         -73.8963   30.9286  -74.6151 O.2       10 UNK        -0.4839 
     25 CA        -74.6139   28.6989  -74.0641 C.3       9 UNK         0.0222 
     26 CB        -76.1241   28.6895  -74.3132 C.3       9 UNK        -0.1966 
     27 N         -73.9192   28.1216  -75.2177 N.am      9 UNK        -0.4218 
     28 C         -72.5911   27.9385  -75.3003 C.2       9 UNK         0.5020 
     29 O         -71.8113   28.2386  -74.3933 O.2       9 UNK        -0.5274 
     30 CA        -72.0192   27.2861  -76.5753 C.3       8 UNK         0.0270 
     31 CB        -71.1566   26.0597  -76.2255 C.3       8 UNK        -0.1976 
     32 N         -73.0555   26.8813  -77.5295 N.am      8 UNK        -0.4313 
     33 C         -73.5168   27.6518  -78.5258 C.2       8 UNK         0.5041 
     34 O         -73.0755   28.7743  -78.7750 O.2       8 UNK        -0.5577 
     35 CA        -74.6660   27.0989  -79.3958 C.3       7 UNK         0.0284 
     36 CB        -74.1264   26.6141  -80.7515 C.3       7 UNK        -0.1958 
     37 N         -75.4471   26.0207  -78.7794 N.am      7 UNK        -0.4454 
     38 C         -76.1505   26.1373  -77.6456 C.2       7 UNK         0.5089 
     39 O         -76.1875   27.1708  -76.9813 O.2       7 UNK        -0.5125 
     40 CA        -76.8767   24.8860  -77.1107 C.3       6 UNK         0.0408 
     41 CB        -76.8374   23.6685  -78.0595 C.3       6 UNK        -0.1791 
     42 N         -76.3811   24.5032  -75.7835 N.am      6 UNK        -0.4762 
     43 C         -75.0995   24.3068  -75.4247 C.2       6 UNK         0.5007 
     44 O         -74.1459   24.4127  -76.1978 O.2       6 UNK        -0.5032 
     45 CA        -74.8339   23.9347  -73.9517 C.3       5 UNK         0.0783 
     46 C46       -74.5758   25.2168  -73.1276 C.3       11 UNK        -0.0857 
     47 S47       -74.0590   24.8934  -71.4107 S.3       11 UNK        -0.2512 
     48 C48       -75.6115   25.0989  -70.4785 C.3       11 UNK         0.0225 
     49 N         -75.9286   23.1360  -73.3972 N.am      5 UNK        -0.4615 
     50 C         -76.1936   21.8674  -73.7266 C.2       4 UNK         0.5053 
     51 O         -75.4857   21.1858  -74.4682 O.2       4 UNK        -0.5105 
     52 CA        -77.4868   21.2638  -73.1547 C.3       4 UNK         0.0263 
     53 CB        -77.8027   21.7358  -71.7168 C.3       4 UNK        -0.1981 
     54 N         -78.6304   21.4809  -74.0492 N.am      4 UNK        -0.4224 
     55 C         -79.1547   22.6529  -74.4386 C.2       3 UNK         0.4895 
     56 O         -78.7280   23.7584  -74.0872 O.2       3 UNK        -0.5091 
     57 CA        -80.3621   22.5726  -75.3830 C.3       3 UNK         0.0250 
     58 CB        -81.5318   21.7868  -74.7554 C.3       3 UNK        -0.1996 
     59 N         -80.8015   23.9279  -75.7018 N.am      3 UNK        -0.4254 
     60 C         -81.4662   24.2976  -76.8029 C.2       2 UNK         0.5004 
     61 O         -81.7821   23.5248  -77.7077 O.2       2 UNK        -0.5226 
     62 CA        -81.8363   25.7808  -76.9156 C.3       2 UNK         0.0269 
     63 CB        -83.1356   26.0710  -76.1374 C.3       2 UNK        -0.1926 
     64 N         -80.7393   26.6268  -76.4417 N.am      2 UNK        -0.4687 
     65 C         -80.6151   27.9370  -76.6784 C.2       1 UNK         0.5165 
     66 O         -81.4478   28.6054  -77.2978 O.2       1 UNK        -0.5079 
     67 H67       -76.9974   30.8935  -79.1553 H         1 UNK         0.0900 
     68 H68       -78.1501   31.8177  -78.1904 H         1 UNK         0.0900 
     69 H69       -78.6461   31.1348  -79.7406 H         1 UNK         0.0900 
     70 H70       -78.9742   30.6554  -76.4775 H         1 UNK         0.2959 
     71 H71       -78.5441   27.8863  -76.1242 H         1 UNK         0.1079 
     72 H72       -78.8418   29.7973  -74.3390 H         1 UNK         0.0837 
     73 H73       -80.5531   29.5127  -74.4771 H         1 UNK         0.0837 
     74 H74       -79.1980   29.5831  -72.0152 H         1 UNK         0.0685 
     75 H75       -79.9532   28.2439  -71.1963 H         1 UNK         0.0685 
     76 H76       -77.7965   26.0894  -71.7732 H         1 UNK         0.1434 
     77 H77       -74.6292   27.2564  -69.1344 H         1 UNK         0.1329 
     78 H78       -77.5884   30.1209  -70.3215 H         1 UNK         0.1335 
     79 H79       -76.0837   30.6625  -68.5222 H         1 UNK         0.0680 
     80 H80       -75.2661   29.3501  -67.7275 H         1 UNK         0.0680 
     81 H81       -73.9458   32.7586  -69.9381 H         1 UNK         0.1032 
     82 H82       -75.3499   31.8757  -70.4425 H         1 UNK         0.1032 
     83 H83       -74.1368   32.4605  -72.4144 H         1 UNK         0.0461 
     84 H84       -70.3431   31.2231  -72.4318 H         1 UNK         0.3453 
     85 H85       -71.6871   30.1588  -72.7649 H         1 UNK         0.3453 
     86 H86       -74.3639   29.6731  -71.7525 H         1 UNK         0.2984 
     87 H87       -74.4046   28.0637  -73.2019 H         1 UNK         0.0554 
     88 H88       -76.5073   27.6736  -74.4021 H         1 UNK         0.0847 
     89 H89       -76.6556   29.1641  -73.4893 H         1 UNK         0.0847 
     90 H90       -76.3847   29.2326  -75.2223 H         1 UNK         0.0847 
     91 H91       -74.5039   27.8573  -76.0039 H         1 UNK         0.3141 
     92 H92       -71.3655   28.0256  -77.0425 H         1 UNK         0.0743 
     93 H93       -70.3057   26.3446  -75.6053 H         1 UNK         0.0784 
     94 H94       -71.7219   25.3098  -75.6720 H         1 UNK         0.0784 
     95 H95       -70.7562   25.5859  -77.1218 H         1 UNK         0.0784 
     96 H96       -73.4924   25.9800  -77.3575 H         1 UNK         0.3213 
     97 H97       -75.3522   27.9294  -79.5779 H         1 UNK         0.0855 
     98 H98       -73.5674   27.4046  -81.2546 H         1 UNK         0.0814 
     99 H99       -74.9354   26.3187  -81.4198 H         1 UNK         0.0814 
    100 H100      -73.4540   25.7629  -80.6369 H         1 UNK         0.0814 
    101 H101      -75.4336   25.1256  -79.2459 H         1 UNK         0.3105 
    102 H102      -77.9214   25.1722  -76.9817 H         1 UNK         0.0547 
    103 H103      -77.2621   23.9104  -79.0347 H         1 UNK         0.0837 
    104 H104      -75.8235   23.2974  -78.2140 H         1 UNK         0.0837 
    105 H105      -77.4262   22.8448  -77.6555 H         1 UNK         0.0837 
    106 H106      -77.0947   24.3896  -75.0696 H         1 UNK         0.3020 
    107 H107      -73.9271   23.3253  -73.9349 H         1 UNK         0.1245 
    108 H108      -73.7673   25.7888  -73.5842 H         1 UNK         0.0781 
    109 H109      -75.4520   25.8655  -73.1357 H         1 UNK         0.0781 
    110 H110      -75.4353   24.7946  -69.4458 H         1 UNK         0.0836 
    111 H111      -76.3622   24.4099  -70.8645 H         1 UNK         0.0836 
    112 H112      -76.6083   23.6266  -72.8361 H         1 UNK         0.3022 
    113 H113      -77.3276   20.1849  -73.1119 H         1 UNK         0.0747 
    114 H114      -78.6173   21.1519  -71.2883 H         1 UNK         0.0793 
    115 H115      -76.9386   21.6072  -71.0633 H         1 UNK         0.0793 
    116 H116      -78.0973   22.7842  -71.6709 H         1 UNK         0.0793 
    117 H117      -79.0374   20.6369  -74.4280 H         1 UNK         0.3047 
    118 H118      -80.0337   22.0760  -76.2988 H         1 UNK         0.0822 
    119 H119      -82.3941   21.7587  -75.4218 H         1 UNK         0.0807 
    120 H120      -81.8546   22.2332  -73.8139 H         1 UNK         0.0807 
    121 H121      -81.2581   20.7515  -74.5506 H         1 UNK         0.0807 
    122 H122      -80.5525   24.6120  -74.9991 H         1 UNK         0.2946 
    123 H123      -82.0046   25.9947  -77.9738 H         1 UNK         0.1144 
    124 H124      -83.4875   27.0885  -76.3064 H         1 UNK         0.0793 
    125 H125      -83.0000   25.9388  -75.0633 H         1 UNK         0.0793 
    126 H126      -83.9368   25.4004  -76.4513 H         1 UNK         0.0793 
    127 H127      -80.0018   26.1594  -75.9340 H         1 UNK         0.2896 
@<TRIPOS>BOND
     1    1    2 1    
     2    1   67 1    
     3    1   68 1    
     4    1   69 1    
     5    2    3 2    
     6    2    4 am   BACKBONE|DICT|INTERRES
     7    4    5 1    
     8    4   70 1    
     9    5    6 1    
    10    5   65 1    
    11    5   71 1    
    12    6    7 1    
    13    6   72 1    
    14    6   73 1    
    15    7    8 1    
    16    8    9 1    
    17    8   74 1    
    18    8   75 1    
    19    9   10 ar   
    20    9   14 ar   
    21   10   11 ar   
    22   10   76 1    
    23   11   12 ar   
    24   11   48 1    
    25   12   13 ar   
    26   12   77 1    
    27   13   14 ar   
    28   13   15 1    
    29   14   78 1    
    30   15   16 1    
    31   15   79 1    
    32   15   80 1    
    33   16   17 1    
    34   17   18 1    
    35   17   81 1    
    36   17   82 1    
    37   18   19 1    
    38   18   22 1    
    39   18   83 1    
    40   19   20 am   BACKBONE|DICT|INTERRES
    41   19   21 2    
    42   20   84 1    
    43   20   85 1    
    44   22   23 am   BACKBONE|DICT|INTERRES
    45   22   86 1    
    46   23   24 2    
    47   23   25 1    
    48   25   26 1    
    49   25   27 1    
    50   25   87 1    
    51   26   88 1    
    52   26   89 1    
    53   26   90 1    
    54   27   28 am   BACKBONE|DICT|INTERRES
    55   27   91 1    
    56   28   29 2    
    57   28   30 1    
    58   30   31 1    
    59   30   32 1    
    60   30   92 1    
    61   31   93 1    
    62   31   94 1    
    63   31   95 1    
    64   32   33 am   BACKBONE|DICT|INTERRES
    65   32   96 1    
    66   33   34 2    
    67   33   35 1    
    68   35   36 1    
    69   35   37 1    
    70   35   97 1    
    71   36   98 1    
    72   36   99 1    
    73   36  100 1    
    74   37   38 am   BACKBONE|DICT|INTERRES
    75   37  101 1    
    76   38   39 2    
    77   38   40 1    
    78   40   41 1    
    79   40   42 1    
    80   40  102 1    
    81   41  103 1    
    82   41  104 1    
    83   41  105 1    
    84   42   43 am   BACKBONE|DICT|INTERRES
    85   42  106 1    
    86   43   44 2    
    87   43   45 1    
    88   45   46 1    
    89   45   49 1    
    90   45  107 1    
    91   46   47 1    
    92   46  108 1    
    93   46  109 1    
    94   47   48 1    
    95   48  110 1    
    96   48  111 1    
    97   49   50 am   BACKBONE|DICT|INTERRES
    98   49  112 1    
    99   50   51 2    
   100   50   52 1    
   101   52   53 1    
   102   52   54 1    
   103   52  113 1    
   104   53  114 1    
   105   53  115 1    
   106   53  116 1    
   107   54   55 am   BACKBONE|DICT|INTERRES
   108   54  117 1    
   109   55   56 2    
   110   55   57 1    
   111   57   58 1    
   112   57   59 1    
   113   57  118 1    
   114   58  119 1    
   115   58  120 1    
   116   58  121 1    
   117   59   60 am   BACKBONE|DICT|INTERRES
   118   59  122 1    
   119   60   61 2    
   120   60   62 1    
   121   62   63 1    
   122   62   64 1    
   123   62  123 1    
   124   63  124 1    
   125   63  125 1    
   126   63  126 1    
   127   64   65 am   BACKBONE|DICT|INTERRES
   128   64  127 1    
   129   65   66 2    
@<TRIPOS>SUBSTRUCTURE
     1 UNK         1 GROUP             0       ****    0 ROOT    
