@<TRIPOS>MOLECULE
3R135
127   129    1
SMALL
USER_CHARGES


@<TRIPOS>ATOM
      1 CA        -85.9382   29.5280  -74.7822 C.3       0 UNK        -0.1998 
      2 C         -84.6486   28.7252  -74.6947 C.2       0 UNK         0.4909 
      3 O         -84.6863   27.5563  -74.3089 O.2       0 UNK        -0.5240 
      4 N         -83.5164   29.3500  -75.0484 N.am      1 UNK        -0.4739 
      5 CA        -82.1646   28.7727  -75.0683 C.3       1 UNK         0.0864 
      6 C6        -81.6213   28.3962  -73.6582 C.3       11 UNK        -0.0881 
      7 S7        -81.6010   29.7956  -72.4895 S.3       11 UNK        -0.2682 
      8 C8        -79.9556   30.5203  -72.8153 C.3       11 UNK         0.0289 
      9 C9        -78.7380   29.7385  -72.3106 C.ar      11 UNK        -0.0687 
     10 C10       -78.8223   28.4943  -71.6651 C.ar      11 UNK        -0.0823 
     11 C11       -77.6680   27.8302  -71.2361 C.ar      11 UNK        -0.0830 
     12 C12       -76.4240   28.4275  -71.4407 C.ar      11 UNK        -0.1021 
     13 C13       -76.3171   29.6695  -72.0706 C.ar      11 UNK        -0.0753 
     14 C14       -77.4772   30.3119  -72.5084 C.ar      11 UNK        -0.0933 
     15 C15       -74.9513   30.2983  -72.3187 C.3       11 UNK         0.0166 
     16 S16       -73.8453   30.1665  -70.8729 S.3       11 UNK        -0.2615 
     17 C17       -72.2219   30.6272  -71.5730 C.3       11 UNK        -0.0865 
     18 CA        -71.4890   29.4996  -72.3593 C.3       10 UNK         0.0862 
     19 C         -71.3062   28.1830  -71.5534 C.2       10 UNK         0.5551 
     20 N         -71.8891   27.0595  -71.9572 N.am      10 UNK        -0.7319 
     21 O         -70.5921   28.1757  -70.5537 O.2       10 UNK        -0.5018 
     22 N         -72.0332   29.3103  -73.7110 N.am      10 UNK        -0.4509 
     23 C         -71.7898   30.1278  -74.7422 C.2       10 UNK         0.4899 
     24 O         -71.0932   31.1416  -74.6635 O.2       10 UNK        -0.4839 
     25 CA        -72.4405   29.7442  -76.0831 C.3       9 UNK         0.0222 
     26 CB        -71.9335   30.5896  -77.2707 C.3       9 UNK        -0.1966 
     27 N         -72.3255   28.3128  -76.3767 N.am      9 UNK        -0.4218 
     28 C         -71.2038   27.5871  -76.5133 C.2       9 UNK         0.5020 
     29 O         -70.0668   28.0540  -76.4310 O.2       9 UNK        -0.5274 
     30 CA        -71.3644   26.0757  -76.7688 C.3       8 UNK         0.0270 
     31 CB        -70.9352   25.2820  -75.5232 C.3       8 UNK        -0.1976 
     32 N         -72.7282   25.6845  -77.1388 N.am      8 UNK        -0.4313 
     33 C         -73.3036   25.9353  -78.3234 C.2       8 UNK         0.5041 
     34 O         -72.7108   26.4361  -79.2796 O.2       8 UNK        -0.5577 
     35 CA        -74.8056   25.6219  -78.4468 C.3       7 UNK         0.0284 
     36 CB        -75.0246   24.1468  -78.8140 C.3       7 UNK        -0.1958 
     37 N         -75.5631   25.9563  -77.2342 N.am      7 UNK        -0.4454 
     38 C         -75.7027   27.1998  -76.7475 C.2       7 UNK         0.5089 
     39 O         -75.2302   28.1994  -77.2858 O.2       7 UNK        -0.5125 
     40 CA        -76.4524   27.3613  -75.4183 C.3       6 UNK         0.0408 
     41 CB        -77.9673   27.4412  -75.6496 C.3       6 UNK        -0.1791 
     42 N         -76.1549   26.2716  -74.4944 N.am      6 UNK        -0.4762 
     43 C         -75.0216   26.1557  -73.7885 C.2       6 UNK         0.5007 
     44 O         -74.0919   26.9691  -73.8265 O.2       6 UNK        -0.5032 
     45 CA        -74.8838   24.8740  -72.9388 C.3       5 UNK         0.0783 
     46 C46       -75.5752   24.9771  -71.5549 C.3       11 UNK        -0.0857 
     47 S47       -77.4047   25.0729  -71.6115 S.3       11 UNK        -0.2512 
     48 C48       -77.7648   26.4888  -70.5183 C.3       11 UNK         0.0225 
     49 N         -75.3000   23.6712  -73.6663 N.am      5 UNK        -0.4615 
     50 C         -74.6968   23.2045  -74.7664 C.2       4 UNK         0.5053 
     51 O         -73.7392   23.7546  -75.3063 O.2       4 UNK        -0.5105 
     52 CA        -75.2598   21.9163  -75.3844 C.3       4 UNK         0.0263 
     53 CB        -74.6267   20.6857  -74.7158 C.3       4 UNK        -0.1981 
     54 N         -76.7197   21.7966  -75.3410 N.am      4 UNK        -0.4224 
     55 C         -77.6007   22.6758  -75.8393 C.2       3 UNK         0.4895 
     56 O         -77.2860   23.7699  -76.3168 O.2       3 UNK        -0.5091 
     57 CA        -79.0685   22.2055  -75.8456 C.3       3 UNK         0.0250 
     58 CB        -79.5184   21.6358  -74.4796 C.3       3 UNK        -0.1996 
     59 N         -80.0037   23.2279  -76.3321 N.am      3 UNK        -0.4254 
     60 C         -80.3631   24.3609  -75.7144 C.2       2 UNK         0.5004 
     61 O         -79.9621   24.7075  -74.5987 O.2       2 UNK        -0.5226 
     62 CA        -81.3632   25.2507  -76.4680 C.3       2 UNK         0.0269 
     63 CB        -82.7157   24.5370  -76.6741 C.3       2 UNK        -0.1926 
     64 N         -81.5566   26.4635  -75.6831 N.am      2 UNK        -0.4687 
     65 C         -82.0731   27.6233  -76.1001 C.2       1 UNK         0.5165 
     66 O         -82.4596   27.8174  -77.2551 O.2       1 UNK        -0.5079 
     67 H67       -86.6321   29.0490  -75.4724 H         1 UNK         0.0900 
     68 H68       -86.4133   29.5813  -73.8030 H         1 UNK         0.0900 
     69 H69       -85.7632   30.5462  -75.1294 H         1 UNK         0.0900 
     70 H70       -83.5721   30.3045  -75.3751 H         1 UNK         0.2959 
     71 H71       -81.5147   29.5540  -75.4654 H         1 UNK         0.1079 
     72 H72       -80.6081   28.0021  -73.7337 H         1 UNK         0.0837 
     73 H73       -82.2229   27.6027  -73.2113 H         1 UNK         0.0837 
     74 H74       -79.9388   31.5094  -72.3554 H         1 UNK         0.0685 
     75 H75       -79.8522   30.6825  -73.8891 H         1 UNK         0.0685 
     76 H76       -79.7815   28.0315  -71.4862 H         1 UNK         0.1434 
     77 H77       -75.5270   27.9309  -71.1054 H         1 UNK         0.1329 
     78 H78       -77.3998   31.2683  -73.0078 H         1 UNK         0.1335 
     79 H79       -74.5155   29.7894  -73.1757 H         1 UNK         0.0680 
     80 H80       -75.0482   31.3502  -72.5913 H         1 UNK         0.0680 
     81 H81       -71.5926   30.9433  -70.7394 H         1 UNK         0.1032 
     82 H82       -72.3394   31.5176  -72.1922 H         1 UNK         0.1032 
     83 H83       -70.4630   29.8456  -72.5021 H         1 UNK         0.0461 
     84 H84       -71.7271   26.2219  -71.4223 H         1 UNK         0.3453 
     85 H85       -72.5501   27.0492  -72.7238 H         1 UNK         0.3453 
     86 H86       -72.6252   28.5001  -73.8495 H         1 UNK         0.2984 
     87 H87       -73.5063   29.9460  -75.9685 H         1 UNK         0.0554 
     88 H88       -72.1279   31.6502  -77.1070 H         1 UNK         0.0847 
     89 H89       -72.4342   30.3088  -78.1973 H         1 UNK         0.0847 
     90 H90       -70.8595   30.4755  -77.4212 H         1 UNK         0.0847 
     91 H91       -73.2090   27.8322  -76.4905 H         1 UNK         0.3141 
     92 H92       -70.6967   25.8109  -77.5912 H         1 UNK         0.0743 
     93 H93       -69.9117   25.5249  -75.2345 H         1 UNK         0.0784 
     94 H94       -71.5759   25.4997  -74.6675 H         1 UNK         0.0784 
     95 H95       -70.9733   24.2078  -75.7048 H         1 UNK         0.0784 
     96 H96       -73.2592   25.1782  -76.4321 H         1 UNK         0.3213 
     97 H97       -75.2040   26.2346  -79.2585 H         1 UNK         0.0855 
     98 H98       -74.6079   23.4807  -78.0602 H         1 UNK         0.0814 
     99 H99       -74.5409   23.9068  -79.7617 H         1 UNK         0.0814 
    100 H100      -76.0844   23.9146  -78.9217 H         1 UNK         0.0814 
    101 H101      -76.0324   25.1903  -76.7565 H         1 UNK         0.3105 
    102 H102      -76.1317   28.2985  -74.9575 H         1 UNK         0.0547 
    103 H103      -78.3466   26.5458  -76.1421 H         1 UNK         0.0837 
    104 H104      -78.2226   28.2953  -76.2779 H         1 UNK         0.0837 
    105 H105      -78.4996   27.5580  -74.7063 H         1 UNK         0.0837 
    106 H106      -76.8480   25.5393  -74.4122 H         1 UNK         0.3020 
    107 H107      -73.8140   24.7590  -72.7496 H         1 UNK         0.1245 
    108 H108      -75.1628   25.8105  -70.9885 H         1 UNK         0.0781 
    109 H109      -75.3210   24.0943  -70.9662 H         1 UNK         0.0781 
    110 H110      -77.0948   26.4740  -69.6574 H         1 UNK         0.0836 
    111 H111      -78.7693   26.3589  -70.1129 H         1 UNK         0.0836 
    112 H112      -76.1021   23.1789  -73.3009 H         1 UNK         0.3022 
    113 H113      -74.9713   21.9069  -76.4360 H         1 UNK         0.0747 
    114 H114      -74.9188   19.7641  -75.2197 H         1 UNK         0.0793 
    115 H115      -73.5374   20.7390  -74.7517 H         1 UNK         0.0793 
    116 H116      -74.9141   20.6018  -73.6669 H         1 UNK         0.0793 
    117 H117      -77.0790   20.9281  -74.9722 H         1 UNK         0.3047 
    118 H118      -79.1220   21.3949  -76.5740 H         1 UNK         0.0822 
    119 H119      -80.5835   21.4035  -74.4796 H         1 UNK         0.0807 
    120 H120      -79.3314   22.3358  -73.6641 H         1 UNK         0.0807 
    121 H121      -78.9951   20.7104  -74.2383 H         1 UNK         0.0807 
    122 H122      -80.3708   23.0606  -77.2584 H         1 UNK         0.2946 
    123 H123      -80.9276   25.5160  -77.4340 H         1 UNK         0.1144 
    124 H124      -83.4303   25.1762  -77.1929 H         1 UNK         0.0793 
    125 H125      -83.1621   24.2448  -75.7228 H         1 UNK         0.0793 
    126 H126      -82.6045   23.6340  -77.2750 H         1 UNK         0.0793 
    127 H127      -81.2089   26.3737  -74.7355 H         1 UNK         0.2896 
@<TRIPOS>BOND
     1    1    2 1    
     2    1   67 1    
     3    1   68 1    
     4    1   69 1    
     5    2    3 2    
     6    2    4 am   BACKBONE|DICT|INTERRES
     7    4    5 1    
     8    4   70 1    
     9    5    6 1    
    10    5   65 1    
    11    5   71 1    
    12    6    7 1    
    13    6   72 1    
    14    6   73 1    
    15    7    8 1    
    16    8    9 1    
    17    8   74 1    
    18    8   75 1    
    19    9   10 ar   
    20    9   14 ar   
    21   10   11 ar   
    22   10   76 1    
    23   11   12 ar   
    24   11   48 1    
    25   12   13 ar   
    26   12   77 1    
    27   13   14 ar   
    28   13   15 1    
    29   14   78 1    
    30   15   16 1    
    31   15   79 1    
    32   15   80 1    
    33   16   17 1    
    34   17   18 1    
    35   17   81 1    
    36   17   82 1    
    37   18   19 1    
    38   18   22 1    
    39   18   83 1    
    40   19   20 am   BACKBONE|DICT|INTERRES
    41   19   21 2    
    42   20   84 1    
    43   20   85 1    
    44   22   23 am   BACKBONE|DICT|INTERRES
    45   22   86 1    
    46   23   24 2    
    47   23   25 1    
    48   25   26 1    
    49   25   27 1    
    50   25   87 1    
    51   26   88 1    
    52   26   89 1    
    53   26   90 1    
    54   27   28 am   BACKBONE|DICT|INTERRES
    55   27   91 1    
    56   28   29 2    
    57   28   30 1    
    58   30   31 1    
    59   30   32 1    
    60   30   92 1    
    61   31   93 1    
    62   31   94 1    
    63   31   95 1    
    64   32   33 am   BACKBONE|DICT|INTERRES
    65   32   96 1    
    66   33   34 2    
    67   33   35 1    
    68   35   36 1    
    69   35   37 1    
    70   35   97 1    
    71   36   98 1    
    72   36   99 1    
    73   36  100 1    
    74   37   38 am   BACKBONE|DICT|INTERRES
    75   37  101 1    
    76   38   39 2    
    77   38   40 1    
    78   40   41 1    
    79   40   42 1    
    80   40  102 1    
    81   41  103 1    
    82   41  104 1    
    83   41  105 1    
    84   42   43 am   BACKBONE|DICT|INTERRES
    85   42  106 1    
    86   43   44 2    
    87   43   45 1    
    88   45   46 1    
    89   45   49 1    
    90   45  107 1    
    91   46   47 1    
    92   46  108 1    
    93   46  109 1    
    94   47   48 1    
    95   48  110 1    
    96   48  111 1    
    97   49   50 am   BACKBONE|DICT|INTERRES
    98   49  112 1    
    99   50   51 2    
   100   50   52 1    
   101   52   53 1    
   102   52   54 1    
   103   52  113 1    
   104   53  114 1    
   105   53  115 1    
   106   53  116 1    
   107   54   55 am   BACKBONE|DICT|INTERRES
   108   54  117 1    
   109   55   56 2    
   110   55   57 1    
   111   57   58 1    
   112   57   59 1    
   113   57  118 1    
   114   58  119 1    
   115   58  120 1    
   116   58  121 1    
   117   59   60 am   BACKBONE|DICT|INTERRES
   118   59  122 1    
   119   60   61 2    
   120   60   62 1    
   121   62   63 1    
   122   62   64 1    
   123   62  123 1    
   124   63  124 1    
   125   63  125 1    
   126   63  126 1    
   127   64   65 am   BACKBONE|DICT|INTERRES
   128   64  127 1    
   129   65   66 2    
@<TRIPOS>SUBSTRUCTURE
     1 UNK         1 GROUP             0       ****    0 ROOT    
