@<TRIPOS>MOLECULE
3R135
127   129    1
SMALL
USER_CHARGES


@<TRIPOS>ATOM
      1 CA        -85.3979   24.9809  -75.2594 C.3       0 UNK        -0.1998 
      2 C         -85.4140   25.8773  -74.0307 C.2       0 UNK         0.4909 
      3 O         -86.4440   26.4744  -73.7183 O.2       0 UNK        -0.5240 
      4 N         -84.2737   25.9899  -73.3396 N.am      1 UNK        -0.4739 
      5 CA        -84.0833   26.8006  -72.1280 C.3       1 UNK         0.0864 
      6 C6        -83.0788   26.1216  -71.1586 C.3       11 UNK        -0.0881 
      7 S7        -81.4173   25.8541  -71.8750 S.3       11 UNK        -0.2682 
      8 C8        -80.3990   26.9064  -70.7982 C.3       11 UNK         0.0289 
      9 C9        -78.9353   26.8916  -71.2140 C.ar      11 UNK        -0.0687 
     10 C10       -78.1022   25.8361  -70.8261 C.ar      11 UNK        -0.0823 
     11 C11       -76.7447   25.8395  -71.1641 C.ar      11 UNK        -0.0830 
     12 C12       -76.2274   26.9085  -71.9006 C.ar      11 UNK        -0.1021 
     13 C13       -77.0461   27.9730  -72.2898 C.ar      11 UNK        -0.0753 
     14 C14       -78.4016   27.9561  -71.9476 C.ar      11 UNK        -0.0933 
     15 C15       -76.4546   29.1593  -73.0384 C.3       11 UNK         0.0166 
     16 S16       -76.5444   28.9253  -74.8370 S.3       11 UNK        -0.2615 
     17 C17       -75.6909   30.4167  -75.4516 C.3       11 UNK        -0.0865 
     18 CA        -74.3306   30.0826  -76.1209 C.3       10 UNK         0.0862 
     19 C         -73.7436   31.3196  -76.8629 C.2       10 UNK         0.5551 
     20 N         -72.5365   31.7760  -76.5505 N.am      10 UNK        -0.7319 
     21 O         -74.3946   31.8714  -77.7466 O.2       10 UNK        -0.5018 
     22 N         -73.4007   29.4485  -75.1704 N.am      10 UNK        -0.4509 
     23 C         -72.4424   28.5779  -75.5047 C.2       10 UNK         0.4899 
     24 O         -72.2294   28.1931  -76.6567 O.2       10 UNK        -0.4839 
     25 CA        -71.6098   28.0342  -74.3332 C.3       9 UNK         0.0222 
     26 CB        -72.4368   27.0419  -73.5000 C.3       9 UNK        -0.1966 
     27 N         -70.4009   27.3626  -74.8087 N.am      9 UNK        -0.4218 
     28 C         -69.2182   27.9659  -74.9945 C.2       9 UNK         0.5020 
     29 O         -69.0156   29.1569  -74.7511 O.2       9 UNK        -0.5274 
     30 CA        -68.0469   27.1086  -75.5129 C.3       8 UNK         0.0270 
     31 CB        -67.1176   26.7130  -74.3532 C.3       8 UNK        -0.1976 
     32 N         -68.4795   25.8971  -76.2112 N.am      8 UNK        -0.4313 
     33 C         -68.9625   25.8719  -77.4592 C.2       8 UNK         0.5041 
     34 O         -69.0221   26.8604  -78.1921 O.2       8 UNK        -0.5577 
     35 CA        -69.4910   24.5238  -77.9827 C.3       7 UNK         0.0284 
     36 CB        -68.9417   23.2881  -77.2316 C.3       7 UNK        -0.1958 
     37 N         -70.9579   24.5159  -78.0104 N.am      7 UNK        -0.4454 
     38 C         -71.7889   24.6772  -76.9690 C.2       7 UNK         0.5089 
     39 O         -71.4027   24.8117  -75.8044 O.2       7 UNK        -0.5125 
     40 CA        -73.2989   24.7401  -77.2904 C.3       6 UNK         0.0408 
     41 CB        -73.6958   23.9539  -78.5607 C.3       6 UNK        -0.1791 
     42 N         -74.1501   24.3396  -76.1649 N.am      6 UNK        -0.4762 
     43 C         -74.1779   23.1608  -75.5281 C.2       6 UNK         0.5007 
     44 O         -73.4508   22.2079  -75.8136 O.2       6 UNK        -0.5032 
     45 CA        -75.2294   22.9895  -74.4099 C.3       5 UNK         0.0783 
     46 C46       -74.7628   23.6222  -73.0698 C.3       11 UNK        -0.0857 
     47 S47       -75.9034   23.2256  -71.6974 S.3       11 UNK        -0.2512 
     48 C48       -75.8248   24.7282  -70.6711 C.3       11 UNK         0.0225 
     49 N         -76.5881   23.3893  -74.8109 N.am      5 UNK        -0.4615 
     50 C         -77.0508   24.6315  -74.9944 C.2       4 UNK         0.5053 
     51 O         -76.3317   25.6324  -75.0065 O.2       4 UNK        -0.5105 
     52 CA        -78.5665   24.7787  -75.1904 C.3       4 UNK         0.0263 
     53 CB        -79.3527   24.0074  -74.1065 C.3       4 UNK        -0.1981 
     54 N         -78.8860   26.2050  -75.1626 N.am      4 UNK        -0.4224 
     55 C         -80.0606   26.7684  -75.4562 C.2       3 UNK         0.4895 
     56 O         -81.0718   26.1417  -75.7878 O.2       3 UNK        -0.5091 
     57 CA        -80.1163   28.2986  -75.3987 C.3       3 UNK         0.0250 
     58 CB        -79.7094   28.9174  -76.7496 C.3       3 UNK        -0.1996 
     59 N         -81.4783   28.6814  -75.0537 N.am      3 UNK        -0.4254 
     60 C         -81.8820   29.8621  -74.5713 C.2       2 UNK         0.5004 
     61 O         -81.1386   30.8269  -74.3918 O.2       2 UNK        -0.5226 
     62 CA        -83.3736   29.9741  -74.2123 C.3       2 UNK         0.0269 
     63 CB        -84.1967   30.4006  -75.4388 C.3       2 UNK        -0.1926 
     64 N         -83.8917   28.7048  -73.6950 N.am      2 UNK        -0.4687 
     65 C         -83.7070   28.2695  -72.4405 C.2       1 UNK         0.5165 
     66 O         -83.2371   28.9795  -71.5496 O.2       1 UNK        -0.5079 
     67 H67       -84.4075   24.5662  -75.4476 H         1 UNK         0.0900 
     68 H68       -86.0940   24.1529  -75.1284 H         1 UNK         0.0900 
     69 H69       -85.7011   25.5453  -76.1408 H         1 UNK         0.0900 
     70 H70       -83.4491   25.4923  -73.6489 H         1 UNK         0.2959 
     71 H71       -85.0384   26.8568  -71.6008 H         1 UNK         0.1079 
     72 H72       -83.4689   25.1462  -70.8641 H         1 UNK         0.0837 
     73 H73       -82.9996   26.6873  -70.2283 H         1 UNK         0.0837 
     74 H74       -80.4900   26.5623  -69.7669 H         1 UNK         0.0685 
     75 H75       -80.7874   27.9257  -70.8191 H         1 UNK         0.0685 
     76 H76       -78.5093   25.0177  -70.2479 H         1 UNK         0.1434 
     77 H77       -75.1798   26.9194  -72.1562 H         1 UNK         0.1329 
     78 H78       -79.0377   28.7821  -72.2353 H         1 UNK         0.1335 
     79 H79       -76.9840   30.0741  -72.7673 H         1 UNK         0.0680 
     80 H80       -75.4145   29.3040  -72.7433 H         1 UNK         0.0680 
     81 H81       -76.3624   30.8935  -76.1684 H         1 UNK         0.1032 
     82 H82       -75.5575   31.1372  -74.6428 H         1 UNK         0.1032 
     83 H83       -74.5401   29.3555  -76.9083 H         1 UNK         0.0461 
     84 H84       -72.1671   32.5748  -77.0418 H         1 UNK         0.3453 
     85 H85       -71.9883   31.3224  -75.8377 H         1 UNK         0.3453 
     86 H86       -73.5058   29.7162  -74.2037 H         1 UNK         0.2984 
     87 H87       -71.3303   28.8700  -73.6882 H         1 UNK         0.0554 
     88 H88       -71.8343   26.5664  -72.7259 H         1 UNK         0.0847 
     89 H89       -72.8747   26.2561  -74.1167 H         1 UNK         0.0847 
     90 H90       -73.2539   27.5580  -72.9996 H         1 UNK         0.0847 
     91 H91       -70.5250   26.4025  -75.1200 H         1 UNK         0.3141 
     92 H92       -67.4750   27.7249  -76.2102 H         1 UNK         0.0743 
     93 H93       -66.2462   26.1645  -74.7115 H         1 UNK         0.0784 
     94 H94       -66.7491   27.5967  -73.8300 H         1 UNK         0.0784 
     95 H95       -67.6298   26.0901  -73.6186 H         1 UNK         0.0784 
     96 H96       -68.4954   25.0399  -75.6769 H         1 UNK         0.3213 
     97 H97       -69.1580   24.4486  -79.0192 H         1 UNK         0.0855 
     98 H98       -69.2823   23.2354  -76.1973 H         1 UNK         0.0814 
     99 H99       -67.8508   23.2868  -77.2230 H         1 UNK         0.0814 
    100 H100      -69.2559   22.3669  -77.7222 H         1 UNK         0.0814 
    101 H101      -71.3700   24.4552  -78.9306 H         1 UNK         0.3105 
    102 H102      -73.5246   25.7924  -77.4683 H         1 UNK         0.0547 
    103 H103      -73.3838   22.9100  -78.5057 H         1 UNK         0.0837 
    104 H104      -74.7756   23.9677  -78.7096 H         1 UNK         0.0837 
    105 H105      -73.2528   24.3872  -79.4576 H         1 UNK         0.0837 
    106 H106      -74.8048   25.0437  -75.8275 H         1 UNK         0.3020 
    107 H107      -75.2938   21.9129  -74.2408 H         1 UNK         0.1245 
    108 H108      -74.6674   24.7042  -73.1660 H         1 UNK         0.0781 
    109 H109      -73.7719   23.2540  -72.7973 H         1 UNK         0.0781 
    110 H110      -76.1046   24.4624  -69.6507 H         1 UNK         0.0836 
    111 H111      -74.7925   25.0773  -70.6136 H         1 UNK         0.0836 
    112 H112      -77.2515   22.6299  -74.8608 H         1 UNK         0.3022 
    113 H113      -78.8203   24.3870  -76.1770 H         1 UNK         0.0747 
    114 H114      -79.1704   22.9343  -74.1614 H         1 UNK         0.0793 
    115 H115      -80.4287   24.1410  -74.2099 H         1 UNK         0.0793 
    116 H116      -79.0707   24.3350  -73.1055 H         1 UNK         0.0793 
    117 H117      -78.0841   26.7862  -74.9337 H         1 UNK         0.3047 
    118 H118      -79.4465   28.6495  -74.6130 H         1 UNK         0.0822 
    119 H119      -80.3927   28.6243  -77.5475 H         1 UNK         0.0807 
    120 H120      -78.7087   28.5968  -77.0418 H         1 UNK         0.0807 
    121 H121      -79.6960   30.0063  -76.7011 H         1 UNK         0.0807 
    122 H122      -82.1456   27.9262  -75.1458 H         1 UNK         0.2946 
    123 H123      -83.4758   30.7449  -73.4444 H         1 UNK         0.1144 
    124 H124      -83.8402   31.3530  -75.8337 H         1 UNK         0.0793 
    125 H125      -85.2487   30.5300  -75.1840 H         1 UNK         0.0793 
    126 H126      -84.1337   29.6692  -76.2456 H         1 UNK         0.0793 
    127 H127      -84.3240   28.0749  -74.3551 H         1 UNK         0.2896 
@<TRIPOS>BOND
     1    1    2 1    
     2    1   67 1    
     3    1   68 1    
     4    1   69 1    
     5    2    3 2    
     6    2    4 am   BACKBONE|DICT|INTERRES
     7    4    5 1    
     8    4   70 1    
     9    5    6 1    
    10    5   65 1    
    11    5   71 1    
    12    6    7 1    
    13    6   72 1    
    14    6   73 1    
    15    7    8 1    
    16    8    9 1    
    17    8   74 1    
    18    8   75 1    
    19    9   10 ar   
    20    9   14 ar   
    21   10   11 ar   
    22   10   76 1    
    23   11   12 ar   
    24   11   48 1    
    25   12   13 ar   
    26   12   77 1    
    27   13   14 ar   
    28   13   15 1    
    29   14   78 1    
    30   15   16 1    
    31   15   79 1    
    32   15   80 1    
    33   16   17 1    
    34   17   18 1    
    35   17   81 1    
    36   17   82 1    
    37   18   19 1    
    38   18   22 1    
    39   18   83 1    
    40   19   20 am   BACKBONE|DICT|INTERRES
    41   19   21 2    
    42   20   84 1    
    43   20   85 1    
    44   22   23 am   BACKBONE|DICT|INTERRES
    45   22   86 1    
    46   23   24 2    
    47   23   25 1    
    48   25   26 1    
    49   25   27 1    
    50   25   87 1    
    51   26   88 1    
    52   26   89 1    
    53   26   90 1    
    54   27   28 am   BACKBONE|DICT|INTERRES
    55   27   91 1    
    56   28   29 2    
    57   28   30 1    
    58   30   31 1    
    59   30   32 1    
    60   30   92 1    
    61   31   93 1    
    62   31   94 1    
    63   31   95 1    
    64   32   33 am   BACKBONE|DICT|INTERRES
    65   32   96 1    
    66   33   34 2    
    67   33   35 1    
    68   35   36 1    
    69   35   37 1    
    70   35   97 1    
    71   36   98 1    
    72   36   99 1    
    73   36  100 1    
    74   37   38 am   BACKBONE|DICT|INTERRES
    75   37  101 1    
    76   38   39 2    
    77   38   40 1    
    78   40   41 1    
    79   40   42 1    
    80   40  102 1    
    81   41  103 1    
    82   41  104 1    
    83   41  105 1    
    84   42   43 am   BACKBONE|DICT|INTERRES
    85   42  106 1    
    86   43   44 2    
    87   43   45 1    
    88   45   46 1    
    89   45   49 1    
    90   45  107 1    
    91   46   47 1    
    92   46  108 1    
    93   46  109 1    
    94   47   48 1    
    95   48  110 1    
    96   48  111 1    
    97   49   50 am   BACKBONE|DICT|INTERRES
    98   49  112 1    
    99   50   51 2    
   100   50   52 1    
   101   52   53 1    
   102   52   54 1    
   103   52  113 1    
   104   53  114 1    
   105   53  115 1    
   106   53  116 1    
   107   54   55 am   BACKBONE|DICT|INTERRES
   108   54  117 1    
   109   55   56 2    
   110   55   57 1    
   111   57   58 1    
   112   57   59 1    
   113   57  118 1    
   114   58  119 1    
   115   58  120 1    
   116   58  121 1    
   117   59   60 am   BACKBONE|DICT|INTERRES
   118   59  122 1    
   119   60   61 2    
   120   60   62 1    
   121   62   63 1    
   122   62   64 1    
   123   62  123 1    
   124   63  124 1    
   125   63  125 1    
   126   63  126 1    
   127   64   65 am   BACKBONE|DICT|INTERRES
   128   64  127 1    
   129   65   66 2    
@<TRIPOS>SUBSTRUCTURE
     1 UNK         1 GROUP             0       ****    0 ROOT    
