@<TRIPOS>MOLECULE
3R135
127   129    1
SMALL
USER_CHARGES


@<TRIPOS>ATOM
      1 CA        -76.9998   29.7772  -75.4583 C.3       0 UNK        -0.1998 
      2 C         -77.9605   28.8476  -74.7336 C.2       0 UNK         0.4909 
      3 O         -77.6817   27.6544  -74.6184 O.2       0 UNK        -0.5240 
      4 N         -79.0910   29.3841  -74.2537 N.am      1 UNK        -0.4739 
      5 CA        -80.1320   28.6540  -73.5215 C.3       1 UNK         0.0864 
      6 C6        -81.0233   29.5922  -72.6576 C.3       11 UNK        -0.0881 
      7 S7        -80.1201   30.6893  -71.5151 S.3       11 UNK        -0.2682 
      8 C8        -79.9128   29.6290  -70.0467 C.3       11 UNK         0.0289 
      9 C9        -78.7373   28.6789  -70.2152 C.ar      11 UNK        -0.0687 
     10 C10       -78.9244   27.2937  -70.2291 C.ar      11 UNK        -0.0823 
     11 C11       -77.8387   26.4333  -70.4280 C.ar      11 UNK        -0.0830 
     12 C12       -76.5580   26.9700  -70.6144 C.ar      11 UNK        -0.1021 
     13 C13       -76.3602   28.3553  -70.5877 C.ar      11 UNK        -0.0753 
     14 C14       -77.4511   29.1985  -70.3711 C.ar      11 UNK        -0.0933 
     15 C15       -74.9818   28.9642  -70.8010 C.3       11 UNK         0.0166 
     16 S16       -74.9282   29.8928  -72.3647 S.3       11 UNK        -0.2615 
     17 C17       -73.2584   30.6213  -72.3066 C.3       11 UNK        -0.0865 
     18 CA        -73.0385   31.6424  -73.4539 C.3       10 UNK         0.0862 
     19 C         -71.6688   32.3558  -73.3076 C.2       10 UNK         0.5551 
     20 N         -71.6369   33.5005  -72.6388 N.am      10 UNK        -0.7319 
     21 O         -70.6326   31.8644  -73.7503 O.2       10 UNK        -0.5018 
     22 N         -73.1957   31.0179  -74.7755 N.am      10 UNK        -0.4509 
     23 C         -73.4866   31.6832  -75.9015 C.2       10 UNK         0.4899 
     24 O         -73.6577   32.9030  -75.9409 O.2       10 UNK        -0.4839 
     25 CA        -73.6683   30.8524  -77.1919 C.3       9 UNK         0.0222 
     26 CB        -73.4601   31.6823  -78.4778 C.3       9 UNK        -0.1966 
     27 N         -72.8763   29.6169  -77.2185 N.am      9 UNK        -0.4218 
     28 C         -71.5391   29.5077  -77.2238 C.2       9 UNK         0.5020 
     29 O         -70.7715   30.4680  -77.3100 O.2       9 UNK        -0.5274 
     30 CA        -70.9662   28.0766  -77.1104 C.3       8 UNK         0.0270 
     31 CB        -69.5273   28.0680  -76.5518 C.3       8 UNK        -0.1976 
     32 N         -71.8019   27.1364  -76.3446 N.am      8 UNK        -0.4313 
     33 C         -72.2651   27.2843  -75.0951 C.2       8 UNK         0.5041 
     34 O         -72.1403   28.3198  -74.4428 O.2       8 UNK        -0.5577 
     35 CA        -73.0022   26.0785  -74.4834 C.3       7 UNK         0.0284 
     36 CB        -73.5458   26.3600  -73.0713 C.3       7 UNK        -0.1958 
     37 N         -74.1083   25.5937  -75.3096 N.am      7 UNK        -0.4454 
     38 C         -73.9940   24.8103  -76.3890 C.2       7 UNK         0.5089 
     39 O         -72.9159   24.5656  -76.9350 O.2       7 UNK        -0.5125 
     40 CA        -75.3011   24.1855  -76.9227 C.3       6 UNK         0.0408 
     41 CB        -75.0436   22.9367  -77.7897 C.3       6 UNK        -0.1791 
     42 N         -76.2784   23.8834  -75.8648 N.am      6 UNK        -0.4762 
     43 C         -76.0891   23.1331  -74.7638 C.2       6 UNK         0.5007 
     44 O         -75.0449   22.5374  -74.4977 O.2       6 UNK        -0.5032 
     45 CA        -77.2799   23.0396  -73.7969 C.3       5 UNK         0.0783 
     46 C46       -77.5812   24.4208  -73.1592 C.3       11 UNK        -0.0857 
     47 S47       -78.9148   24.3466  -71.9200 S.3       11 UNK        -0.2512 
     48 C48       -78.0576   24.9252  -70.4195 C.3       11 UNK         0.0225 
     49 N         -78.4244   22.4801  -74.5162 N.am      5 UNK        -0.4615 
     50 C         -78.6484   21.1695  -74.6855 C.2       4 UNK         0.5053 
     51 O         -77.9678   20.2866  -74.1629 O.2       4 UNK        -0.5105 
     52 CA        -79.8289   20.7645  -75.5890 C.3       4 UNK         0.0263 
     53 CB        -81.0858   20.5058  -74.7423 C.3       4 UNK        -0.1981 
     54 N         -80.1360   21.7686  -76.6091 N.am      4 UNK        -0.4224 
     55 C         -79.3640   22.0478  -77.6702 C.2       3 UNK         0.4895 
     56 O         -78.3783   21.3850  -77.9912 O.2       3 UNK        -0.5091 
     57 CA        -79.7384   23.2944  -78.4975 C.3       3 UNK         0.0250 
     58 CB        -80.5068   22.8894  -79.7656 C.3       3 UNK        -0.1996 
     59 N         -80.5260   24.2810  -77.7454 N.am      3 UNK        -0.4254 
     60 C         -80.0747   24.9581  -76.6807 C.2       2 UNK         0.5004 
     61 O         -78.9210   24.8714  -76.2546 O.2       2 UNK        -0.5226 
     62 CA        -81.1090   25.7822  -75.9116 C.3       2 UNK         0.0269 
     63 CB        -82.0217   24.8533  -75.0839 C.3       2 UNK        -0.1926 
     64 N         -80.4295   26.7223  -75.0225 N.am      2 UNK        -0.4687 
     65 C         -80.9952   27.8061  -74.4834 C.2       1 UNK         0.5165 
     66 O         -82.1531   28.1492  -74.7346 O.2       1 UNK        -0.5079 
     67 H67       -77.0967   29.6504  -76.5360 H         1 UNK         0.0900 
     68 H68       -75.9733   29.5437  -75.1778 H         1 UNK         0.0900 
     69 H69       -77.1853   30.8228  -75.2130 H         1 UNK         0.0900 
     70 H70       -79.2671   30.3700  -74.3827 H         1 UNK         0.2959 
     71 H71       -79.6369   27.9532  -72.8468 H         1 UNK         0.1079 
     72 H72       -81.6188   30.2434  -73.3006 H         1 UNK         0.0837 
     73 H73       -81.7432   29.0067  -72.0824 H         1 UNK         0.0837 
     74 H74       -79.7290   30.2639  -69.1789 H         1 UNK         0.0685 
     75 H75       -80.8379   29.0882  -69.8416 H         1 UNK         0.0685 
     76 H76       -79.9157   26.8813  -70.0982 H         1 UNK         0.1434 
     77 H77       -75.7160   26.3115  -70.7765 H         1 UNK         0.1329 
     78 H78       -77.3030   30.2699  -70.3617 H         1 UNK         0.1335 
     79 H79       -74.7518   29.6340  -69.9712 H         1 UNK         0.0680 
     80 H80       -74.2095   28.1941  -70.8063 H         1 UNK         0.0680 
     81 H81       -72.5171   29.8215  -72.3477 H         1 UNK         0.1032 
     82 H82       -73.1320   31.1075  -71.3374 H         1 UNK         0.1032 
     83 H83       -73.8173   32.4026  -73.3599 H         1 UNK         0.0461 
     84 H84       -72.4789   33.9088  -72.2634 H         1 UNK         0.3453 
     85 H85       -70.7545   33.9728  -72.5171 H         1 UNK         0.3453 
     86 H86       -72.9745   30.0261  -74.8122 H         1 UNK         0.2984 
     87 H87       -74.7099   30.5308  -77.1885 H         1 UNK         0.0554 
     88 H88       -74.1747   32.5044  -78.5326 H         1 UNK         0.0847 
     89 H89       -73.6007   31.0744  -79.3714 H         1 UNK         0.0847 
     90 H90       -72.4624   32.1198  -78.5222 H         1 UNK         0.0847 
     91 H91       -73.4030   28.7587  -77.1381 H         1 UNK         0.3141 
     92 H92       -70.9277   27.6885  -78.1292 H         1 UNK         0.0743 
     93 H93       -69.1253   27.0560  -76.5036 H         1 UNK         0.0784 
     94 H94       -69.4855   28.4944  -75.5486 H         1 UNK         0.0784 
     95 H95       -68.8548   28.6509  -77.1825 H         1 UNK         0.0784 
     96 H96       -72.0013   26.2441  -76.7929 H         1 UNK         0.3213 
     97 H97       -72.2632   25.2791  -74.3936 H         1 UNK         0.0855 
     98 H98       -74.3440   27.1016  -73.0953 H         1 UNK         0.0814 
     99 H99       -72.7629   26.7376  -72.4122 H         1 UNK         0.0814 
    100 H100      -73.9438   25.4547  -72.6127 H         1 UNK         0.0814 
    101 H101      -75.0399   25.7854  -74.9695 H         1 UNK         0.3105 
    102 H102      -75.7636   24.9420  -77.5581 H         1 UNK         0.0547 
    103 H103      -74.4020   23.1722  -78.6396 H         1 UNK         0.0837 
    104 H104      -74.5549   22.1446  -77.2217 H         1 UNK         0.0837 
    105 H105      -75.9729   22.5359  -78.1923 H         1 UNK         0.0837 
    106 H106      -77.1943   24.3158  -75.9875 H         1 UNK         0.3020 
    107 H107      -76.9951   22.3570  -72.9923 H         1 UNK         0.1245 
    108 H108      -77.8777   25.1479  -73.9137 H         1 UNK         0.0781 
    109 H109      -76.6807   24.8276  -72.6963 H         1 UNK         0.0781 
    110 H110      -77.1131   24.3908  -70.3056 H         1 UNK         0.0836 
    111 H111      -78.6601   24.6591  -69.5497 H         1 UNK         0.0836 
    112 H112      -78.9905   23.1484  -75.0211 H         1 UNK         0.3022 
    113 H113      -79.5564   19.8354  -76.0944 H         1 UNK         0.0747 
    114 H114      -81.9149   20.1561  -75.3578 H         1 UNK         0.0793 
    115 H115      -80.8969   19.7384  -73.9901 H         1 UNK         0.0793 
    116 H116      -81.4115   21.4040  -74.2157 H         1 UNK         0.0793 
    117 H117      -80.9499   22.3426  -76.4497 H         1 UNK         0.3047 
    118 H118      -78.8038   23.7728  -78.7992 H         1 UNK         0.0822 
    119 H119      -80.7053   23.7517  -80.4024 H         1 UNK         0.0807 
    120 H120      -81.4616   22.4187  -79.5278 H         1 UNK         0.0807 
    121 H121      -79.9317   22.1771  -80.3592 H         1 UNK         0.0807 
    122 H122      -81.4871   24.4032  -78.0327 H         1 UNK         0.2946 
    123 H123      -81.7055   26.3422  -76.6358 H         1 UNK         0.1144 
    124 H124      -82.7880   25.4168  -74.5514 H         1 UNK         0.0793 
    125 H125      -81.4532   24.2881  -74.3436 H         1 UNK         0.0793 
    126 H126      -82.5434   24.1355  -75.7177 H         1 UNK         0.0793 
    127 H127      -79.4370   26.5534  -74.8750 H         1 UNK         0.2896 
@<TRIPOS>BOND
     1    1    2 1    
     2    1   67 1    
     3    1   68 1    
     4    1   69 1    
     5    2    3 2    
     6    2    4 am   BACKBONE|DICT|INTERRES
     7    4    5 1    
     8    4   70 1    
     9    5    6 1    
    10    5   65 1    
    11    5   71 1    
    12    6    7 1    
    13    6   72 1    
    14    6   73 1    
    15    7    8 1    
    16    8    9 1    
    17    8   74 1    
    18    8   75 1    
    19    9   10 ar   
    20    9   14 ar   
    21   10   11 ar   
    22   10   76 1    
    23   11   12 ar   
    24   11   48 1    
    25   12   13 ar   
    26   12   77 1    
    27   13   14 ar   
    28   13   15 1    
    29   14   78 1    
    30   15   16 1    
    31   15   79 1    
    32   15   80 1    
    33   16   17 1    
    34   17   18 1    
    35   17   81 1    
    36   17   82 1    
    37   18   19 1    
    38   18   22 1    
    39   18   83 1    
    40   19   20 am   BACKBONE|DICT|INTERRES
    41   19   21 2    
    42   20   84 1    
    43   20   85 1    
    44   22   23 am   BACKBONE|DICT|INTERRES
    45   22   86 1    
    46   23   24 2    
    47   23   25 1    
    48   25   26 1    
    49   25   27 1    
    50   25   87 1    
    51   26   88 1    
    52   26   89 1    
    53   26   90 1    
    54   27   28 am   BACKBONE|DICT|INTERRES
    55   27   91 1    
    56   28   29 2    
    57   28   30 1    
    58   30   31 1    
    59   30   32 1    
    60   30   92 1    
    61   31   93 1    
    62   31   94 1    
    63   31   95 1    
    64   32   33 am   BACKBONE|DICT|INTERRES
    65   32   96 1    
    66   33   34 2    
    67   33   35 1    
    68   35   36 1    
    69   35   37 1    
    70   35   97 1    
    71   36   98 1    
    72   36   99 1    
    73   36  100 1    
    74   37   38 am   BACKBONE|DICT|INTERRES
    75   37  101 1    
    76   38   39 2    
    77   38   40 1    
    78   40   41 1    
    79   40   42 1    
    80   40  102 1    
    81   41  103 1    
    82   41  104 1    
    83   41  105 1    
    84   42   43 am   BACKBONE|DICT|INTERRES
    85   42  106 1    
    86   43   44 2    
    87   43   45 1    
    88   45   46 1    
    89   45   49 1    
    90   45  107 1    
    91   46   47 1    
    92   46  108 1    
    93   46  109 1    
    94   47   48 1    
    95   48  110 1    
    96   48  111 1    
    97   49   50 am   BACKBONE|DICT|INTERRES
    98   49  112 1    
    99   50   51 2    
   100   50   52 1    
   101   52   53 1    
   102   52   54 1    
   103   52  113 1    
   104   53  114 1    
   105   53  115 1    
   106   53  116 1    
   107   54   55 am   BACKBONE|DICT|INTERRES
   108   54  117 1    
   109   55   56 2    
   110   55   57 1    
   111   57   58 1    
   112   57   59 1    
   113   57  118 1    
   114   58  119 1    
   115   58  120 1    
   116   58  121 1    
   117   59   60 am   BACKBONE|DICT|INTERRES
   118   59  122 1    
   119   60   61 2    
   120   60   62 1    
   121   62   63 1    
   122   62   64 1    
   123   62  123 1    
   124   63  124 1    
   125   63  125 1    
   126   63  126 1    
   127   64   65 am   BACKBONE|DICT|INTERRES
   128   64  127 1    
   129   65   66 2    
@<TRIPOS>SUBSTRUCTURE
     1 UNK         1 GROUP             0       ****    0 ROOT    
