@<TRIPOS>MOLECULE
3R135
127   129    1
SMALL
USER_CHARGES


@<TRIPOS>ATOM
      1 CA        -79.1008   28.6950  -77.4241 C.3       0 UNK        -0.1998 
      2 C         -80.1854   28.4829  -76.3785 C.2       0 UNK         0.4909 
      3 O         -81.3704   28.5551  -76.7049 O.2       0 UNK        -0.5240 
      4 N         -79.7791   28.2294  -75.1285 N.am      1 UNK        -0.4739 
      5 CA        -80.6337   28.0254  -73.9500 C.3       1 UNK         0.0864 
      6 C6        -81.4349   29.2813  -73.5005 C.3       11 UNK        -0.0881 
      7 S7        -80.4289   30.7908  -73.2742 S.3       11 UNK        -0.2682 
      8 C8        -79.8398   30.6377  -71.5539 C.3       11 UNK         0.0289 
      9 C9        -78.5351   29.8583  -71.4974 C.ar      11 UNK        -0.0687 
     10 C10       -78.5290   28.5034  -71.1578 C.ar      11 UNK        -0.0823 
     11 C11       -77.3490   27.7586  -71.2345 C.ar      11 UNK        -0.0830 
     12 C12       -76.1530   28.3961  -71.5778 C.ar      11 UNK        -0.1021 
     13 C13       -76.1389   29.7633  -71.8715 C.ar      11 UNK        -0.0753 
     14 C14       -77.3334   30.4873  -71.8337 C.ar      11 UNK        -0.0933 
     15 C15       -74.8514   30.4529  -72.2900 C.3       11 UNK         0.0166 
     16 S16       -73.8879   31.0423  -70.8655 S.3       11 UNK        -0.2615 
     17 C17       -72.7460   29.6427  -70.5899 C.3       11 UNK        -0.0865 
     18 CA        -71.3522   29.8806  -71.2322 C.3       10 UNK         0.0862 
     19 C         -70.3290   28.7978  -70.7816 C.2       10 UNK         0.5551 
     20 N         -69.7143   28.0431  -71.6849 N.am      10 UNK        -0.7319 
     21 O         -70.0795   28.6482  -69.5880 O.2       10 UNK        -0.5018 
     22 N         -71.4453   30.0344  -72.6947 N.am      10 UNK        -0.4509 
     23 C         -70.6816   30.8393  -73.4398 C.2       10 UNK         0.4899 
     24 O         -69.8110   31.5744  -72.9727 O.2       10 UNK        -0.4839 
     25 CA        -70.9186   30.8541  -74.9644 C.3       9 UNK         0.0222 
     26 CB        -69.8844   29.9671  -75.6860 C.3       9 UNK        -0.1966 
     27 N         -72.2881   30.5435  -75.4120 N.am      9 UNK        -0.4218 
     28 C         -72.9593   29.3851  -75.3332 C.2       9 UNK         0.5020 
     29 O         -72.5241   28.3799  -74.7688 O.2       9 UNK        -0.5274 
     30 CA        -74.3761   29.3339  -75.9382 C.3       8 UNK         0.0270 
     31 CB        -74.9266   30.6927  -76.4288 C.3       8 UNK        -0.1976 
     32 N         -74.4592   28.3157  -76.9883 N.am      8 UNK        -0.4313 
     33 C         -73.7537   28.2672  -78.1310 C.2       8 UNK         0.5041 
     34 O         -72.9846   29.1568  -78.4988 O.2       8 UNK        -0.5577 
     35 CA        -73.8983   27.0124  -79.0160 C.3       7 UNK         0.0284 
     36 CB        -72.5838   26.2132  -79.0312 C.3       7 UNK        -0.1958 
     37 N         -74.9828   26.1228  -78.5971 N.am      7 UNK        -0.4454 
     38 C         -76.2829   26.3248  -78.8462 C.2       7 UNK         0.5089 
     39 O         -76.7146   27.2489  -79.5347 O.2       7 UNK        -0.5125 
     40 CA        -77.2700   25.3425  -78.1905 C.3       6 UNK         0.0408 
     41 CB        -77.6918   24.2522  -79.1870 C.3       6 UNK        -0.1791 
     42 N         -76.7639   24.7076  -76.9679 N.am      6 UNK        -0.4762 
     43 C         -76.4678   25.3461  -75.8247 C.2       6 UNK         0.5007 
     44 O         -76.4879   26.5733  -75.7137 O.2       6 UNK        -0.5032 
     45 CA        -76.0661   24.4585  -74.6307 C.3       5 UNK         0.0783 
     46 C46       -76.1030   25.1707  -73.2492 C.3       11 UNK        -0.0857 
     47 S47       -77.7723   25.3568  -72.5266 S.3       11 UNK        -0.2512 
     48 C48       -77.3866   26.2583  -70.9897 C.3       11 UNK         0.0225 
     49 N         -76.8210   23.2020  -74.6487 N.am      5 UNK        -0.4615 
     50 C         -76.3411   22.0145  -74.2610 C.2       4 UNK         0.5053 
     51 O         -75.1709   21.8400  -73.9190 O.2       4 UNK        -0.5105 
     52 CA        -77.3096   20.8146  -74.2188 C.3       4 UNK         0.0263 
     53 CB        -77.6169   20.4333  -72.7608 C.3       4 UNK        -0.1981 
     54 N         -78.5764   21.0399  -74.9186 N.am      4 UNK        -0.4224 
     55 C         -78.7345   21.0476  -76.2493 C.2       3 UNK         0.4895 
     56 O         -77.8265   20.8169  -77.0481 O.2       3 UNK        -0.5091 
     57 CA        -80.1379   21.4060  -76.7818 C.3       3 UNK         0.0250 
     58 CB        -80.9500   20.1286  -77.0496 C.3       3 UNK        -0.1996 
     59 N         -80.9179   22.3054  -75.9161 N.am      3 UNK        -0.4254 
     60 C         -80.5115   23.5172  -75.5135 C.2       2 UNK         0.5004 
     61 O         -79.4071   23.9856  -75.7924 O.2       2 UNK        -0.5226 
     62 CA        -81.4583   24.3218  -74.6168 C.3       2 UNK         0.0269 
     63 CB        -81.6147   23.6552  -73.2356 C.3       2 UNK        -0.1926 
     64 N         -80.8817   25.6535  -74.4605 N.am      2 UNK        -0.4687 
     65 C         -81.5126   26.7611  -74.0648 C.2       1 UNK         0.5165 
     66 O         -82.7138   26.7990  -73.7897 O.2       1 UNK        -0.5079 
     67 H67       -79.0912   29.7352  -77.7479 H         1 UNK         0.0900 
     68 H68       -79.2893   28.0703  -78.2967 H         1 UNK         0.0900 
     69 H69       -78.1100   28.4502  -77.0407 H         1 UNK         0.0900 
     70 H70       -78.7861   28.1708  -74.9452 H         1 UNK         0.2959 
     71 H71       -79.9405   27.7800  -73.1528 H         1 UNK         0.1079 
     72 H72       -82.2062   29.5114  -74.2377 H         1 UNK         0.0837 
     73 H73       -81.9683   29.0804  -72.5697 H         1 UNK         0.0837 
     74 H74       -80.6041   30.1739  -70.9288 H         1 UNK         0.0685 
     75 H75       -79.6801   31.6375  -71.1476 H         1 UNK         0.0685 
     76 H76       -79.4552   28.0124  -70.8917 H         1 UNK         0.1434 
     77 H77       -75.2392   27.8228  -71.6387 H         1 UNK         0.1329 
     78 H78       -77.3349   31.5368  -72.0952 H         1 UNK         0.1335 
     79 H79       -74.2502   29.7685  -72.8835 H         1 UNK         0.0680 
     80 H80       -75.0737   31.3022  -72.9378 H         1 UNK         0.0680 
     81 H81       -73.1856   28.7143  -70.9553 H         1 UNK         0.1032 
     82 H82       -72.6500   29.5196  -69.5094 H         1 UNK         0.1032 
     83 H83       -70.9730   30.8173  -70.8189 H         1 UNK         0.0461 
     84 H84       -69.9139   28.1587  -72.6654 H         1 UNK         0.3453 
     85 H85       -69.0495   27.3494  -71.3809 H         1 UNK         0.3453 
     86 H86       -72.0600   29.3938  -73.1855 H         1 UNK         0.2984 
     87 H87       -70.7413   31.8817  -75.2855 H         1 UNK         0.0554 
     88 H88       -69.9911   30.0354  -76.7687 H         1 UNK         0.0847 
     89 H89       -69.9793   28.9174  -75.4070 H         1 UNK         0.0847 
     90 H90       -68.8673   30.2756  -75.4407 H         1 UNK         0.0847 
     91 H91       -72.7625   31.3068  -75.8744 H         1 UNK         0.3141 
     92 H92       -75.0332   28.9894  -75.1378 H         1 UNK         0.0743 
     93 H93       -74.3375   31.1121  -77.2451 H         1 UNK         0.0784 
     94 H94       -75.9504   30.5865  -76.7881 H         1 UNK         0.0784 
     95 H95       -74.9509   31.4253  -75.6210 H         1 UNK         0.0784 
     96 H96       -75.0707   27.5368  -76.7657 H         1 UNK         0.3213 
     97 H97       -74.1016   27.3557  -80.0329 H         1 UNK         0.0855 
     98 H98       -72.3182   25.8527  -78.0365 H         1 UNK         0.0814 
     99 H99       -71.7558   26.8297  -79.3844 H         1 UNK         0.0814 
    100 H100      -72.6489   25.3521  -79.6967 H         1 UNK         0.0814 
    101 H101      -74.7300   25.3264  -78.0302 H         1 UNK         0.3105 
    102 H102      -78.1615   25.9081  -77.9146 H         1 UNK         0.0547 
    103 H103      -78.1003   24.6919  -80.0980 H         1 UNK         0.0837 
    104 H104      -76.8511   23.6208  -79.4768 H         1 UNK         0.0837 
    105 H105      -78.4648   23.6105  -78.7646 H         1 UNK         0.0837 
    106 H106      -76.7373   23.6974  -76.9647 H         1 UNK         0.3020 
    107 H107      -75.0177   24.2247  -74.8302 H         1 UNK         0.1245 
    108 H108      -75.5067   24.5928  -72.5415 H         1 UNK         0.0781 
    109 H109      -75.6209   26.1475  -73.3057 H         1 UNK         0.0781 
    110 H110      -78.1486   26.0244  -70.2447 H         1 UNK         0.0836 
    111 H111      -76.4401   25.9094  -70.5740 H         1 UNK         0.0836 
    112 H112      -77.7904   23.2904  -74.9428 H         1 UNK         0.3022 
    113 H113      -76.8014   19.9720  -74.6927 H         1 UNK         0.0747 
    114 H114      -78.2459   19.5446  -72.7058 H         1 UNK         0.0793 
    115 H115      -76.7001   20.2123  -72.2122 H         1 UNK         0.0793 
    116 H116      -78.1255   21.2406  -72.2318 H         1 UNK         0.0793 
    117 H117      -79.3805   21.2464  -74.3447 H         1 UNK         0.3047 
    118 H118      -79.9941   21.9216  -77.7333 H         1 UNK         0.0822 
    119 H119      -81.9001   20.3551  -77.5337 H         1 UNK         0.0807 
    120 H120      -81.1622   19.5841  -76.1286 H         1 UNK         0.0807 
    121 H121      -80.4067   19.4514  -77.7106 H         1 UNK         0.0807 
    122 H122      -81.8332   21.9810  -75.6376 H         1 UNK         0.2946 
    123 H123      -82.4277   24.4013  -75.1137 H         1 UNK         0.1144 
    124 H124      -82.2759   24.2313  -72.5881 H         1 UNK         0.0793 
    125 H125      -80.6544   23.5578  -72.7267 H         1 UNK         0.0793 
    126 H126      -82.0447   22.6568  -73.3208 H         1 UNK         0.0793 
    127 H127      -79.9065   25.7030  -74.7342 H         1 UNK         0.2896 
@<TRIPOS>BOND
     1    1    2 1    
     2    1   67 1    
     3    1   68 1    
     4    1   69 1    
     5    2    3 2    
     6    2    4 am   BACKBONE|DICT|INTERRES
     7    4    5 1    
     8    4   70 1    
     9    5    6 1    
    10    5   65 1    
    11    5   71 1    
    12    6    7 1    
    13    6   72 1    
    14    6   73 1    
    15    7    8 1    
    16    8    9 1    
    17    8   74 1    
    18    8   75 1    
    19    9   10 ar   
    20    9   14 ar   
    21   10   11 ar   
    22   10   76 1    
    23   11   12 ar   
    24   11   48 1    
    25   12   13 ar   
    26   12   77 1    
    27   13   14 ar   
    28   13   15 1    
    29   14   78 1    
    30   15   16 1    
    31   15   79 1    
    32   15   80 1    
    33   16   17 1    
    34   17   18 1    
    35   17   81 1    
    36   17   82 1    
    37   18   19 1    
    38   18   22 1    
    39   18   83 1    
    40   19   20 am   BACKBONE|DICT|INTERRES
    41   19   21 2    
    42   20   84 1    
    43   20   85 1    
    44   22   23 am   BACKBONE|DICT|INTERRES
    45   22   86 1    
    46   23   24 2    
    47   23   25 1    
    48   25   26 1    
    49   25   27 1    
    50   25   87 1    
    51   26   88 1    
    52   26   89 1    
    53   26   90 1    
    54   27   28 am   BACKBONE|DICT|INTERRES
    55   27   91 1    
    56   28   29 2    
    57   28   30 1    
    58   30   31 1    
    59   30   32 1    
    60   30   92 1    
    61   31   93 1    
    62   31   94 1    
    63   31   95 1    
    64   32   33 am   BACKBONE|DICT|INTERRES
    65   32   96 1    
    66   33   34 2    
    67   33   35 1    
    68   35   36 1    
    69   35   37 1    
    70   35   97 1    
    71   36   98 1    
    72   36   99 1    
    73   36  100 1    
    74   37   38 am   BACKBONE|DICT|INTERRES
    75   37  101 1    
    76   38   39 2    
    77   38   40 1    
    78   40   41 1    
    79   40   42 1    
    80   40  102 1    
    81   41  103 1    
    82   41  104 1    
    83   41  105 1    
    84   42   43 am   BACKBONE|DICT|INTERRES
    85   42  106 1    
    86   43   44 2    
    87   43   45 1    
    88   45   46 1    
    89   45   49 1    
    90   45  107 1    
    91   46   47 1    
    92   46  108 1    
    93   46  109 1    
    94   47   48 1    
    95   48  110 1    
    96   48  111 1    
    97   49   50 am   BACKBONE|DICT|INTERRES
    98   49  112 1    
    99   50   51 2    
   100   50   52 1    
   101   52   53 1    
   102   52   54 1    
   103   52  113 1    
   104   53  114 1    
   105   53  115 1    
   106   53  116 1    
   107   54   55 am   BACKBONE|DICT|INTERRES
   108   54  117 1    
   109   55   56 2    
   110   55   57 1    
   111   57   58 1    
   112   57   59 1    
   113   57  118 1    
   114   58  119 1    
   115   58  120 1    
   116   58  121 1    
   117   59   60 am   BACKBONE|DICT|INTERRES
   118   59  122 1    
   119   60   61 2    
   120   60   62 1    
   121   62   63 1    
   122   62   64 1    
   123   62  123 1    
   124   63  124 1    
   125   63  125 1    
   126   63  126 1    
   127   64   65 am   BACKBONE|DICT|INTERRES
   128   64  127 1    
   129   65   66 2    
@<TRIPOS>SUBSTRUCTURE
     1 UNK         1 GROUP             0       ****    0 ROOT    
