@<TRIPOS>MOLECULE
3R135
127   129    1
SMALL
USER_CHARGES


@<TRIPOS>ATOM
      1 CA        -83.2424   30.1105  -75.8313 C.3       0 UNK        -0.1998 
      2 C         -81.9464   29.4028  -75.4668 C.2       0 UNK         0.4909 
      3 O         -80.8892   29.7520  -75.9915 O.2       0 UNK        -0.5240 
      4 N         -82.0196   28.4112  -74.5690 N.am      1 UNK        -0.4739 
      5 CA        -80.8712   27.6263  -74.0951 C.3       1 UNK         0.0864 
      6 C6        -81.2051   26.8251  -72.8103 C.3       11 UNK        -0.0881 
      7 S7        -81.9844   27.7754  -71.4527 S.3       11 UNK        -0.2682 
      8 C8        -80.9698   29.2927  -71.3119 C.3       11 UNK         0.0289 
      9 C9        -79.5031   29.0941  -70.9222 C.ar      11 UNK        -0.0687 
     10 C10       -79.0155   27.8940  -70.3865 C.ar      11 UNK        -0.0823 
     11 C11       -77.6588   27.7475  -70.0908 C.ar      11 UNK        -0.0830 
     12 C12       -76.7976   28.8353  -70.2437 C.ar      11 UNK        -0.1021 
     13 C13       -77.2593   30.0322  -70.7926 C.ar      11 UNK        -0.0753 
     14 C14       -78.6126   30.1557  -71.1241 C.ar      11 UNK        -0.0933 
     15 C15       -76.2862   31.1713  -71.0663 C.3       11 UNK         0.0166 
     16 S16       -75.3101   30.8705  -72.5802 S.3       11 UNK        -0.2615 
     17 C17       -74.0218   29.7175  -71.9848 C.3       11 UNK        -0.0865 
     18 CA        -72.6486   29.9508  -72.6610 C.3       10 UNK         0.0862 
     19 C         -71.5419   29.1224  -71.9570 C.2       10 UNK         0.5551 
     20 N         -70.7103   29.7582  -71.1435 N.am      10 UNK        -0.7319 
     21 O         -71.4647   27.9045  -72.1051 O.2       10 UNK        -0.5018 
     22 N         -72.6942   29.6383  -74.0939 N.am      10 UNK        -0.4509 
     23 C         -71.8247   30.1071  -74.9962 C.2       10 UNK         0.4899 
     24 O         -70.9456   30.9323  -74.7400 O.2       10 UNK        -0.4839 
     25 CA        -71.9746   29.5505  -76.4225 C.3       9 UNK         0.0222 
     26 CB        -70.9219   30.0967  -77.4106 C.3       9 UNK        -0.1966 
     27 N         -72.0050   28.0854  -76.4352 N.am      9 UNK        -0.4218 
     28 C         -71.0398   27.2284  -76.0663 C.2       9 UNK         0.5020 
     29 O         -69.9172   27.5699  -75.6917 O.2       9 UNK        -0.5274 
     30 CA        -71.3776   25.7237  -76.1244 C.3       8 UNK         0.0270 
     31 CB        -71.5632   25.1610  -74.7052 C.3       8 UNK        -0.1976 
     32 N         -72.5755   25.4213  -76.9137 N.am      8 UNK        -0.4313 
     33 C         -72.6670   25.5155  -78.2477 C.2       8 UNK         0.5041 
     34 O         -71.7126   25.7596  -78.9864 O.2       8 UNK        -0.5577 
     35 CA        -74.0740   25.3666  -78.8510 C.3       7 UNK         0.0284 
     36 CB        -74.4256   23.8876  -79.0812 C.3       7 UNK        -0.1958 
     37 N         -75.0971   26.0044  -78.0146 N.am      7 UNK        -0.4454 
     38 C         -75.2491   27.3312  -77.8870 C.2       7 UNK         0.5089 
     39 O         -74.5788   28.1575  -78.5045 O.2       7 UNK        -0.5125 
     40 CA        -76.2993   27.8262  -76.8781 C.3       6 UNK         0.0408 
     41 CB        -77.6602   28.0070  -77.5669 C.3       6 UNK        -0.1791 
     42 N         -76.4442   26.9410  -75.7197 N.am      6 UNK        -0.4762 
     43 C         -75.5126   26.7749  -74.7704 C.2       6 UNK         0.5007 
     44 O         -74.4444   27.3877  -74.7529 O.2       6 UNK        -0.5032 
     45 CA        -75.8083   25.7250  -73.6777 C.3       5 UNK         0.0783 
     46 C46       -76.6865   26.3517  -72.5754 C.3       11 UNK        -0.0857 
     47 S47       -77.0517   25.2462  -71.1627 S.3       11 UNK        -0.2512 
     48 C48       -77.0931   26.3826  -69.7241 C.3       11 UNK         0.0225 
     49 N         -76.3709   24.4801  -74.2169 N.am      5 UNK        -0.4615 
     50 C         -75.7579   23.6908  -75.1067 C.2       4 UNK         0.5053 
     51 O         -74.6745   23.9750  -75.6170 O.2       4 UNK        -0.5105 
     52 CA        -76.4365   22.3752  -75.5291 C.3       4 UNK         0.0263 
     53 CB        -75.8611   21.1873  -74.7345 C.3       4 UNK        -0.1981 
     54 N         -77.9062   22.3721  -75.5114 N.am      4 UNK        -0.4224 
     55 C         -78.7479   22.4233  -74.4709 C.2       3 UNK         0.4895 
     56 O         -78.3884   22.5691  -73.3026 O.2       3 UNK        -0.5091 
     57 CA        -80.2486   22.3260  -74.8134 C.3       3 UNK         0.0250 
     58 CB        -81.1207   22.0843  -73.5669 C.3       3 UNK        -0.1996 
     59 N         -80.7240   23.5323  -75.4908 N.am      3 UNK        -0.4254 
     60 C         -80.4257   23.9055  -76.7431 C.2       2 UNK         0.5004 
     61 O         -79.7831   23.2046  -77.5267 O.2       2 UNK        -0.5226 
     62 CA        -80.8981   25.3012  -77.1935 C.3       2 UNK         0.0269 
     63 CB        -82.1296   25.1834  -78.1056 C.3       2 UNK        -0.1926 
     64 N         -81.2037   26.2264  -76.0942 N.am      2 UNK        -0.4687 
     65 C         -80.3292   26.6653  -75.1747 C.2       1 UNK         0.5165 
     66 O         -79.1496   26.3158  -75.1422 O.2       1 UNK        -0.5079 
     67 H67       -83.1664   31.1730  -75.6017 H         1 UNK         0.0900 
     68 H68       -84.0953   29.7063  -75.2864 H         1 UNK         0.0900 
     69 H69       -83.4399   30.0053  -76.8977 H         1 UNK         0.0900 
     70 H70       -82.9089   28.1835  -74.1463 H         1 UNK         0.2959 
     71 H71       -80.0584   28.3195  -73.8672 H         1 UNK         0.1079 
     72 H72       -81.8869   26.0048  -73.0437 H         1 UNK         0.0837 
     73 H73       -80.3014   26.3509  -72.4225 H         1 UNK         0.0837 
     74 H74       -81.4320   29.9316  -70.5585 H         1 UNK         0.0685 
     75 H75       -81.0311   29.8446  -72.2506 H         1 UNK         0.0685 
     76 H76       -79.6691   27.0463  -70.2420 H         1 UNK         0.1434 
     77 H77       -75.7501   28.7220  -70.0060 H         1 UNK         0.1329 
     78 H78       -78.9729   31.0807  -71.5537 H         1 UNK         0.1335 
     79 H79       -76.8328   32.1075  -71.1888 H         1 UNK         0.0680 
     80 H80       -75.6250   31.3189  -70.2112 H         1 UNK         0.0680 
     81 H81       -74.3571   28.6927  -72.1478 H         1 UNK         0.1032 
     82 H82       -73.9195   29.8400  -70.9052 H         1 UNK         0.1032 
     83 H83       -72.4046   31.0100  -72.5524 H         1 UNK         0.0461 
     84 H84       -70.7705   30.7560  -71.0120 H         1 UNK         0.3453 
     85 H85       -69.9961   29.2322  -70.6645 H         1 UNK         0.3453 
     86 H86       -73.3472   28.9097  -74.3702 H         1 UNK         0.2984 
     87 H87       -72.9540   29.8759  -76.7765 H         1 UNK         0.0554 
     88 H88       -70.9825   31.1833  -77.4816 H         1 UNK         0.0847 
     89 H89       -71.0760   29.6973  -78.4130 H         1 UNK         0.0847 
     90 H90       -69.9056   29.8490  -77.1030 H         1 UNK         0.0847 
     91 H91       -72.8961   27.6795  -76.6855 H         1 UNK         0.3141 
     92 H92       -70.5293   25.2155  -76.5875 H         1 UNK         0.0743 
     93 H93       -70.6678   25.3183  -74.1023 H         1 UNK         0.0784 
     94 H94       -72.3906   25.6454  -74.1857 H         1 UNK         0.0784 
     95 H95       -71.7599   24.0889  -74.7236 H         1 UNK         0.0784 
     96 H96       -73.3973   25.1168  -76.3951 H         1 UNK         0.3213 
     97 H97       -74.0721   25.8664  -79.8224 H         1 UNK         0.0855 
     98 H98       -74.4100   23.3127  -78.1556 H         1 UNK         0.0814 
     99 H99       -73.7097   23.4228  -79.7604 H         1 UNK         0.0814 
    100 H100      -75.4133   23.7784  -79.5293 H         1 UNK         0.0814 
    101 H101      -75.6603   25.4005  -77.4337 H         1 UNK         0.3105 
    102 H102      -75.9730   28.8031  -76.5145 H         1 UNK         0.0547 
    103 H103      -77.5775   28.6718  -78.4278 H         1 UNK         0.0837 
    104 H104      -78.0598   27.0581  -77.9242 H         1 UNK         0.0837 
    105 H105      -78.3920   28.4486  -76.8902 H         1 UNK         0.0837 
    106 H106      -77.3397   26.4693  -75.6065 H         1 UNK         0.3020 
    107 H107      -74.8471   25.4643  -73.2290 H         1 UNK         0.1245 
    108 H108      -77.6373   26.7007  -72.9815 H         1 UNK         0.0781 
    109 H109      -76.1716   27.2352  -72.2053 H         1 UNK         0.0781 
    110 H110      -77.6923   25.9352  -68.9299 H         1 UNK         0.0836 
    111 H111      -76.0821   26.4805  -69.3255 H         1 UNK         0.0836 
    112 H112      -77.2320   24.1474  -73.7960 H         1 UNK         0.3022 
    113 H113      -76.1667   22.2230  -76.5753 H         1 UNK         0.0747 
    114 H114      -74.7774   21.1329  -74.8476 H         1 UNK         0.0793 
    115 H115      -76.0696   21.2708  -73.6674 H         1 UNK         0.0793 
    116 H116      -76.2708   20.2397  -75.0841 H         1 UNK         0.0793 
    117 H117      -78.3453   22.3715  -76.4284 H         1 UNK         0.3047 
    118 H118      -80.3799   21.4741  -75.4843 H         1 UNK         0.0822 
    119 H119      -82.1685   21.9484  -73.8354 H         1 UNK         0.0807 
    120 H120      -81.0594   22.9142  -72.8615 H         1 UNK         0.0807 
    121 H121      -80.8038   21.1840  -73.0386 H         1 UNK         0.0807 
    122 H122      -81.2467   24.1847  -74.9266 H         1 UNK         0.2946 
    123 H123      -80.0826   25.7361  -77.7741 H         1 UNK         0.1144 
    124 H124      -81.9281   24.5250  -78.9520 H         1 UNK         0.0793 
    125 H125      -82.4155   26.1528  -78.5143 H         1 UNK         0.0793 
    126 H126      -82.9893   24.7751  -77.5727 H         1 UNK         0.0793 
    127 H127      -82.1507   26.5737  -76.0444 H         1 UNK         0.2896 
@<TRIPOS>BOND
     1    1    2 1    
     2    1   67 1    
     3    1   68 1    
     4    1   69 1    
     5    2    3 2    
     6    2    4 am   BACKBONE|DICT|INTERRES
     7    4    5 1    
     8    4   70 1    
     9    5    6 1    
    10    5   65 1    
    11    5   71 1    
    12    6    7 1    
    13    6   72 1    
    14    6   73 1    
    15    7    8 1    
    16    8    9 1    
    17    8   74 1    
    18    8   75 1    
    19    9   10 ar   
    20    9   14 ar   
    21   10   11 ar   
    22   10   76 1    
    23   11   12 ar   
    24   11   48 1    
    25   12   13 ar   
    26   12   77 1    
    27   13   14 ar   
    28   13   15 1    
    29   14   78 1    
    30   15   16 1    
    31   15   79 1    
    32   15   80 1    
    33   16   17 1    
    34   17   18 1    
    35   17   81 1    
    36   17   82 1    
    37   18   19 1    
    38   18   22 1    
    39   18   83 1    
    40   19   20 am   BACKBONE|DICT|INTERRES
    41   19   21 2    
    42   20   84 1    
    43   20   85 1    
    44   22   23 am   BACKBONE|DICT|INTERRES
    45   22   86 1    
    46   23   24 2    
    47   23   25 1    
    48   25   26 1    
    49   25   27 1    
    50   25   87 1    
    51   26   88 1    
    52   26   89 1    
    53   26   90 1    
    54   27   28 am   BACKBONE|DICT|INTERRES
    55   27   91 1    
    56   28   29 2    
    57   28   30 1    
    58   30   31 1    
    59   30   32 1    
    60   30   92 1    
    61   31   93 1    
    62   31   94 1    
    63   31   95 1    
    64   32   33 am   BACKBONE|DICT|INTERRES
    65   32   96 1    
    66   33   34 2    
    67   33   35 1    
    68   35   36 1    
    69   35   37 1    
    70   35   97 1    
    71   36   98 1    
    72   36   99 1    
    73   36  100 1    
    74   37   38 am   BACKBONE|DICT|INTERRES
    75   37  101 1    
    76   38   39 2    
    77   38   40 1    
    78   40   41 1    
    79   40   42 1    
    80   40  102 1    
    81   41  103 1    
    82   41  104 1    
    83   41  105 1    
    84   42   43 am   BACKBONE|DICT|INTERRES
    85   42  106 1    
    86   43   44 2    
    87   43   45 1    
    88   45   46 1    
    89   45   49 1    
    90   45  107 1    
    91   46   47 1    
    92   46  108 1    
    93   46  109 1    
    94   47   48 1    
    95   48  110 1    
    96   48  111 1    
    97   49   50 am   BACKBONE|DICT|INTERRES
    98   49  112 1    
    99   50   51 2    
   100   50   52 1    
   101   52   53 1    
   102   52   54 1    
   103   52  113 1    
   104   53  114 1    
   105   53  115 1    
   106   53  116 1    
   107   54   55 am   BACKBONE|DICT|INTERRES
   108   54  117 1    
   109   55   56 2    
   110   55   57 1    
   111   57   58 1    
   112   57   59 1    
   113   57  118 1    
   114   58  119 1    
   115   58  120 1    
   116   58  121 1    
   117   59   60 am   BACKBONE|DICT|INTERRES
   118   59  122 1    
   119   60   61 2    
   120   60   62 1    
   121   62   63 1    
   122   62   64 1    
   123   62  123 1    
   124   63  124 1    
   125   63  125 1    
   126   63  126 1    
   127   64   65 am   BACKBONE|DICT|INTERRES
   128   64  127 1    
   129   65   66 2    
@<TRIPOS>SUBSTRUCTURE
     1 UNK         1 GROUP             0       ****    0 ROOT    
