@<TRIPOS>MOLECULE
3R135
127   129    1
SMALL
USER_CHARGES


@<TRIPOS>ATOM
      1 CA        -78.8537   22.7003  -72.3542 C.3       0 UNK        -0.1998 
      2 C         -79.9000   23.7091  -71.9040 C.2       0 UNK         0.4909 
      3 O         -80.4523   23.5705  -70.8123 O.2       0 UNK        -0.5240 
      4 N         -80.1765   24.7158  -72.7395 N.am      1 UNK        -0.4739 
      5 CA        -81.2178   25.7259  -72.5175 C.3       1 UNK         0.0864 
      6 C6        -80.7951   27.1150  -73.0529 C.3       11 UNK        -0.0881 
      7 S7        -79.5314   27.8649  -71.9805 S.3       11 UNK        -0.2682 
      8 C8        -79.2797   29.4748  -72.7846 C.3       11 UNK         0.0289 
      9 C9        -77.9683   29.5013  -73.5507 C.ar      11 UNK        -0.0687 
     10 C10       -77.9475   29.3636  -74.9425 C.ar      11 UNK        -0.0823 
     11 C11       -76.7341   29.4078  -75.6373 C.ar      11 UNK        -0.0830 
     12 C12       -75.5422   29.5961  -74.9302 C.ar      11 UNK        -0.1021 
     13 C13       -75.5528   29.7337  -73.5406 C.ar      11 UNK        -0.0753 
     14 C14       -76.7688   29.6837  -72.8562 C.ar      11 UNK        -0.0933 
     15 C15       -74.2530   29.9452  -72.7826 C.3       11 UNK         0.0166 
     16 S16       -74.0513   31.6913  -72.3127 S.3       11 UNK        -0.2615 
     17 C17       -72.3037   31.7261  -71.7811 C.3       11 UNK        -0.0865 
     18 CA        -71.4080   32.5869  -72.7228 C.3       10 UNK         0.0862 
     19 C         -69.9614   32.7742  -72.1694 C.2       10 UNK         0.5551 
     20 N         -68.9407   32.8734  -73.0122 N.am      10 UNK        -0.7319 
     21 O         -69.7620   32.8666  -70.9604 O.2       10 UNK        -0.5018 
     22 N         -71.4880   32.1701  -74.1369 N.am      10 UNK        -0.4509 
     23 C         -71.1091   30.9841  -74.6282 C.2       10 UNK         0.4899 
     24 O         -70.5807   30.1000  -73.9511 O.2       10 UNK        -0.4839 
     25 CA        -71.4217   30.7561  -76.1190 C.3       9 UNK         0.0222 
     26 CB        -70.5739   31.6614  -77.0380 C.3       9 UNK        -0.1966 
     27 N         -71.3278   29.3386  -76.4887 N.am      9 UNK        -0.4218 
     28 C         -70.2363   28.5783  -76.6531 C.2       9 UNK         0.5020 
     29 O         -69.0785   29.0009  -76.6828 O.2       9 UNK        -0.5274 
     30 CA        -70.5055   27.0638  -76.7555 C.3       8 UNK         0.0270 
     31 CB        -69.2856   26.2767  -77.2708 C.3       8 UNK        -0.1976 
     32 N         -70.9121   26.5185  -75.4567 N.am      8 UNK        -0.4313 
     33 C         -72.1061   26.7080  -74.8823 C.2       8 UNK         0.5041 
     34 O         -73.0351   27.3219  -75.4182 O.2       8 UNK        -0.5577 
     35 CA        -72.2845   26.1462  -73.4687 C.3       7 UNK         0.0284 
     36 CB        -71.5595   27.0163  -72.4240 C.3       7 UNK        -0.1958 
     37 N         -73.7131   26.0976  -73.1820 N.am      7 UNK        -0.4454 
     38 C         -74.3054   25.3094  -72.2798 C.2       7 UNK         0.5089 
     39 O         -73.6913   24.5664  -71.5130 O.2       7 UNK        -0.5125 
     40 CA        -75.8441   25.3398  -72.2215 C.3       6 UNK         0.0408 
     41 CB        -76.3200   26.2463  -71.0768 C.3       6 UNK        -0.1791 
     42 N         -76.4825   25.7543  -73.4775 N.am      6 UNK        -0.4762 
     43 C         -76.4968   25.0081  -74.5917 C.2       6 UNK         0.5007 
     44 O         -75.9602   23.9005  -74.6770 O.2       6 UNK        -0.5032 
     45 CA        -77.2187   25.6021  -75.8158 C.3       5 UNK         0.0783 
     46 C46       -76.2616   26.4793  -76.6576 C.3       11 UNK        -0.0857 
     47 S47       -77.2187   27.6048  -77.7284 S.3       11 UNK        -0.2512 
     48 C48       -76.6962   29.2562  -77.1536 C.3       11 UNK         0.0225 
     49 N         -77.7723   24.5190  -76.6305 N.am      5 UNK        -0.4615 
     50 C         -78.9145   23.8764  -76.3809 C.2       4 UNK         0.5053 
     51 O         -79.7088   24.1941  -75.4903 O.2       4 UNK        -0.5105 
     52 CA        -79.1766   22.6291  -77.2347 C.3       4 UNK         0.0263 
     53 CB        -78.6760   21.3768  -76.4961 C.3       4 UNK        -0.1981 
     54 N         -80.6081   22.4940  -77.4793 N.am      4 UNK        -0.4224 
     55 C         -81.2449   22.8818  -78.5925 C.2       3 UNK         0.4895 
     56 O         -80.6773   23.2842  -79.6087 O.2       3 UNK        -0.5091 
     57 CA        -82.7851   22.8248  -78.5599 C.3       3 UNK         0.0250 
     58 CB        -83.2906   21.5033  -79.1612 C.3       3 UNK        -0.1996 
     59 N         -83.3235   22.9809  -77.2041 N.am      3 UNK        -0.4254 
     60 C         -83.2586   24.1174  -76.4961 C.2       2 UNK         0.5004 
     61 O         -82.8724   25.1899  -76.9645 O.2       2 UNK        -0.5226 
     62 CA        -83.6367   24.0508  -75.0111 C.3       2 UNK         0.0269 
     63 CB        -84.0508   22.6518  -74.5046 C.3       2 UNK        -0.1926 
     64 N         -82.4855   24.5260  -74.2483 N.am      2 UNK        -0.4687 
     65 C         -82.5517   25.2837  -73.1477 C.2       1 UNK         0.5165 
     66 O         -83.6111   25.6311  -72.6231 O.2       1 UNK        -0.5079 
     67 H67       -78.0545   22.6337  -71.6167 H         1 UNK         0.0900 
     68 H68       -78.4086   22.9714  -73.3108 H         1 UNK         0.0900 
     69 H69       -79.3049   21.7141  -72.4588 H         1 UNK         0.0900 
     70 H70       -79.7539   24.7170  -73.6632 H         1 UNK         0.2959 
     71 H71       -81.4071   25.8218  -71.4456 H         1 UNK         0.1079 
     72 H72       -80.4175   27.0468  -74.0751 H         1 UNK         0.0837 
     73 H73       -81.6477   27.7973  -73.0796 H         1 UNK         0.0837 
     74 H74       -80.1188   29.7130  -73.4401 H         1 UNK         0.0685 
     75 H75       -79.2662   30.2506  -72.0176 H         1 UNK         0.0685 
     76 H76       -78.8717   29.2215  -75.4863 H         1 UNK         0.1434 
     77 H77       -74.6009   29.6308  -75.4614 H         1 UNK         0.1329 
     78 H78       -76.7827   29.7966  -71.7806 H         1 UNK         0.1335 
     79 H79       -73.4099   29.6311  -73.3983 H         1 UNK         0.0680 
     80 H80       -74.2359   29.3204  -71.8883 H         1 UNK         0.0680 
     81 H81       -71.9132   30.7106  -71.6988 H         1 UNK         0.1032 
     82 H82       -72.2861   32.1315  -70.7678 H         1 UNK         0.1032 
     83 H83       -71.8237   33.5951  -72.7099 H         1 UNK         0.0461 
     84 H84       -68.0097   33.0057  -72.6498 H         1 UNK         0.3453 
     85 H85       -69.0931   32.8013  -74.0051 H         1 UNK         0.3453 
     86 H86       -71.9104   32.8425  -74.7606 H         1 UNK         0.2984 
     87 H87       -72.4700   31.0210  -76.2661 H         1 UNK         0.0554 
     88 H88       -70.7523   31.4384  -78.0899 H         1 UNK         0.0847 
     89 H89       -69.5058   31.5525  -76.8484 H         1 UNK         0.0847 
     90 H90       -70.8186   32.7133  -76.8876 H         1 UNK         0.0847 
     91 H91       -72.1893   28.8118  -76.3651 H         1 UNK         0.3141 
     92 H92       -71.3199   26.9180  -77.4689 H         1 UNK         0.0743 
     93 H93       -68.4361   26.3516  -76.5906 H         1 UNK         0.0784 
     94 H94       -69.5208   25.2199  -77.3990 H         1 UNK         0.0784 
     95 H95       -68.9605   26.6547  -78.2411 H         1 UNK         0.0784 
     96 H96       -70.1951   26.0377  -74.9323 H         1 UNK         0.3213 
     97 H97       -71.8817   25.1311  -73.4492 H         1 UNK         0.0855 
     98 H98       -71.9320   28.0402  -72.4222 H         1 UNK         0.0814 
     99 H99       -70.4887   27.0646  -72.6247 H         1 UNK         0.0814 
    100 H100      -71.6798   26.6158  -71.4174 H         1 UNK         0.0814 
    101 H101      -74.2764   26.6493  -73.8181 H         1 UNK         0.3105 
    102 H102      -76.1738   24.3232  -71.9979 H         1 UNK         0.0547 
    103 H103      -75.8351   25.9785  -70.1371 H         1 UNK         0.0837 
    104 H104      -76.0975   27.2957  -71.2700 H         1 UNK         0.0837 
    105 H105      -77.3934   26.1488  -70.9184 H         1 UNK         0.0837 
    106 H106      -76.9320   26.6605  -73.4761 H         1 UNK         0.3020 
    107 H107      -78.0405   26.2202  -75.4447 H         1 UNK         0.1245 
    108 H108      -75.5905   27.0590  -76.0253 H         1 UNK         0.0781 
    109 H109      -75.6075   25.8658  -77.2798 H         1 UNK         0.0781 
    110 H110      -75.6926   29.4522  -77.5347 H         1 UNK         0.0836 
    111 H111      -77.3436   30.0089  -77.6054 H         1 UNK         0.0836 
    112 H112      -77.1631   24.1613  -77.3510 H         1 UNK         0.3022 
    113 H113      -78.6384   22.7171  -78.1812 H         1 UNK         0.0747 
    114 H114      -78.8450   20.4755  -77.0857 H         1 UNK         0.0793 
    115 H115      -77.6045   21.4404  -76.3007 H         1 UNK         0.0793 
    116 H116      -79.1741   21.2467  -75.5342 H         1 UNK         0.0793 
    117 H117      -81.1666   22.2272  -76.6827 H         1 UNK         0.3047 
    118 H118      -83.1589   23.6472  -79.1740 H         1 UNK         0.0822 
    119 H119      -84.3797   21.4776  -79.2046 H         1 UNK         0.0807 
    120 H120      -82.9558   20.6404  -78.5840 H         1 UNK         0.0807 
    121 H121      -82.9245   21.3746  -80.1809 H         1 UNK         0.0807 
    122 H122      -83.6763   22.1487  -76.7533 H         1 UNK         0.2946 
    123 H123      -84.4796   24.7335  -74.8799 H         1 UNK         0.1144 
    124 H124      -84.9177   22.2714  -75.0466 H         1 UNK         0.0793 
    125 H125      -84.3316   22.6891  -73.4517 H         1 UNK         0.0793 
    126 H126      -83.2432   21.9248  -74.5994 H         1 UNK         0.0793 
    127 H127      -81.5742   24.3459  -74.6594 H         1 UNK         0.2896 
@<TRIPOS>BOND
     1    1    2 1    
     2    1   67 1    
     3    1   68 1    
     4    1   69 1    
     5    2    3 2    
     6    2    4 am   BACKBONE|DICT|INTERRES
     7    4    5 1    
     8    4   70 1    
     9    5    6 1    
    10    5   65 1    
    11    5   71 1    
    12    6    7 1    
    13    6   72 1    
    14    6   73 1    
    15    7    8 1    
    16    8    9 1    
    17    8   74 1    
    18    8   75 1    
    19    9   10 ar   
    20    9   14 ar   
    21   10   11 ar   
    22   10   76 1    
    23   11   12 ar   
    24   11   48 1    
    25   12   13 ar   
    26   12   77 1    
    27   13   14 ar   
    28   13   15 1    
    29   14   78 1    
    30   15   16 1    
    31   15   79 1    
    32   15   80 1    
    33   16   17 1    
    34   17   18 1    
    35   17   81 1    
    36   17   82 1    
    37   18   19 1    
    38   18   22 1    
    39   18   83 1    
    40   19   20 am   BACKBONE|DICT|INTERRES
    41   19   21 2    
    42   20   84 1    
    43   20   85 1    
    44   22   23 am   BACKBONE|DICT|INTERRES
    45   22   86 1    
    46   23   24 2    
    47   23   25 1    
    48   25   26 1    
    49   25   27 1    
    50   25   87 1    
    51   26   88 1    
    52   26   89 1    
    53   26   90 1    
    54   27   28 am   BACKBONE|DICT|INTERRES
    55   27   91 1    
    56   28   29 2    
    57   28   30 1    
    58   30   31 1    
    59   30   32 1    
    60   30   92 1    
    61   31   93 1    
    62   31   94 1    
    63   31   95 1    
    64   32   33 am   BACKBONE|DICT|INTERRES
    65   32   96 1    
    66   33   34 2    
    67   33   35 1    
    68   35   36 1    
    69   35   37 1    
    70   35   97 1    
    71   36   98 1    
    72   36   99 1    
    73   36  100 1    
    74   37   38 am   BACKBONE|DICT|INTERRES
    75   37  101 1    
    76   38   39 2    
    77   38   40 1    
    78   40   41 1    
    79   40   42 1    
    80   40  102 1    
    81   41  103 1    
    82   41  104 1    
    83   41  105 1    
    84   42   43 am   BACKBONE|DICT|INTERRES
    85   42  106 1    
    86   43   44 2    
    87   43   45 1    
    88   45   46 1    
    89   45   49 1    
    90   45  107 1    
    91   46   47 1    
    92   46  108 1    
    93   46  109 1    
    94   47   48 1    
    95   48  110 1    
    96   48  111 1    
    97   49   50 am   BACKBONE|DICT|INTERRES
    98   49  112 1    
    99   50   51 2    
   100   50   52 1    
   101   52   53 1    
   102   52   54 1    
   103   52  113 1    
   104   53  114 1    
   105   53  115 1    
   106   53  116 1    
   107   54   55 am   BACKBONE|DICT|INTERRES
   108   54  117 1    
   109   55   56 2    
   110   55   57 1    
   111   57   58 1    
   112   57   59 1    
   113   57  118 1    
   114   58  119 1    
   115   58  120 1    
   116   58  121 1    
   117   59   60 am   BACKBONE|DICT|INTERRES
   118   59  122 1    
   119   60   61 2    
   120   60   62 1    
   121   62   63 1    
   122   62   64 1    
   123   62  123 1    
   124   63  124 1    
   125   63  125 1    
   126   63  126 1    
   127   64   65 am   BACKBONE|DICT|INTERRES
   128   64  127 1    
   129   65   66 2    
@<TRIPOS>SUBSTRUCTURE
     1 UNK         1 GROUP             0       ****    0 ROOT    
