@<TRIPOS>MOLECULE
3R135
127   129    1
SMALL
USER_CHARGES


@<TRIPOS>ATOM
      1 CA        -83.9558   25.5709  -75.5886 C.3       0 UNK        -0.1998 
      2 C         -82.9481   26.6328  -75.1770 C.2       0 UNK         0.4909 
      3 O         -82.3981   27.3235  -76.0354 O.2       0 UNK        -0.5240 
      4 N         -82.6859   26.7662  -73.8702 N.am      1 UNK        -0.4739 
      5 CA        -81.6785   27.6783  -73.3184 C.3       1 UNK         0.0864 
      6 C6        -81.7967   27.7869  -71.7786 C.3       11 UNK        -0.0881 
      7 S7        -81.2416   29.4102  -71.1607 S.3       11 UNK        -0.2682 
      8 C8        -79.9378   28.9441  -69.9806 C.3       11 UNK         0.0289 
      9 C9        -78.6329   28.5954  -70.6798 C.ar      11 UNK        -0.0687 
     10 C10       -78.2643   27.2609  -70.8747 C.ar      11 UNK        -0.0823 
     11 C11       -77.0486   26.9387  -71.4876 C.ar      11 UNK        -0.0830 
     12 C12       -76.1949   27.9700  -71.8952 C.ar      11 UNK        -0.1021 
     13 C13       -76.5575   29.3080  -71.7129 C.ar      11 UNK        -0.0753 
     14 C14       -77.7775   29.6148  -71.1059 C.ar      11 UNK        -0.0933 
     15 C15       -75.6254   30.4205  -72.1606 C.3       11 UNK         0.0166 
     16 S16       -74.4075   30.7936  -70.8608 S.3       11 UNK        -0.2615 
     17 C17       -73.4027   32.1467  -71.5783 C.3       11 UNK        -0.0865 
     18 CA        -72.9858   31.9864  -73.0724 C.3       10 UNK         0.0862 
     19 C         -72.0865   33.1606  -73.5671 C.2       10 UNK         0.5551 
     20 N         -71.0921   32.9257  -74.4163 N.am      10 UNK        -0.7319 
     21 O         -72.3131   34.3112  -73.2004 O.2       10 UNK        -0.5018 
     22 N         -72.4717   30.6470  -73.4024 N.am      10 UNK        -0.4509 
     23 C         -71.4066   30.0377  -72.8650 C.2       10 UNK         0.4899 
     24 O         -70.7045   30.5152  -71.9736 O.2       10 UNK        -0.4839 
     25 CA        -71.0564   28.6548  -73.4410 C.3       9 UNK         0.0222 
     26 CB        -71.6895   27.5430  -72.5882 C.3       9 UNK        -0.1966 
     27 N         -71.4744   28.4854  -74.8365 N.am      9 UNK        -0.4218 
     28 C         -70.9869   29.1579  -75.8877 C.2       9 UNK         0.5020 
     29 O         -70.1150   30.0238  -75.7902 O.2       9 UNK        -0.5274 
     30 CA        -71.5818   28.8114  -77.2705 C.3       8 UNK         0.0270 
     31 CB        -70.7474   29.3852  -78.4317 C.3       8 UNK        -0.1976 
     32 N         -71.7572   27.3684  -77.4788 N.am      8 UNK        -0.4313 
     33 C         -72.7374   26.6225  -76.9559 C.2       8 UNK         0.5041 
     34 O         -73.5978   27.0658  -76.1909 O.2       8 UNK        -0.5577 
     35 CA        -72.7168   25.1297  -77.2860 C.3       7 UNK         0.0284 
     36 CB        -71.8994   24.3504  -76.2407 C.3       7 UNK        -0.1958 
     37 N         -74.0904   24.6405  -77.2957 N.am      7 UNK        -0.4454 
     38 C         -74.5548   23.6672  -78.0856 C.2       7 UNK         0.5089 
     39 O         -73.8571   23.0481  -78.8918 O.2       7 UNK        -0.5125 
     40 CA        -76.0514   23.3374  -77.9411 C.3       6 UNK         0.0408 
     41 CB        -76.4797   22.0803  -78.7271 C.3       6 UNK        -0.1791 
     42 N         -76.4746   23.2503  -76.5394 N.am      6 UNK        -0.4762 
     43 C         -76.0547   22.3757  -75.6104 C.2       6 UNK         0.5007 
     44 O         -75.2045   21.5083  -75.8150 O.2       6 UNK        -0.5032 
     45 CA        -76.7230   22.4521  -74.2215 C.3       5 UNK         0.0783 
     46 C46       -75.8790   23.2663  -73.2066 C.3       11 UNK        -0.0857 
     47 S47       -76.0623   25.0787  -73.3409 S.3       11 UNK        -0.2512 
     48 C48       -76.6540   25.4762  -71.6621 C.3       11 UNK         0.0225 
     49 N         -78.1165   22.9049  -74.3158 N.am      5 UNK        -0.4615 
     50 C         -79.1316   22.1242  -74.7131 C.2       4 UNK         0.5053 
     51 O         -79.0321   20.9112  -74.8986 O.2       4 UNK        -0.5105 
     52 CA        -80.4738   22.8193  -74.9856 C.3       4 UNK         0.0263 
     53 CB        -81.2304   23.0973  -73.6763 C.3       4 UNK        -0.1981 
     54 N         -80.2843   24.0582  -75.7468 N.am      4 UNK        -0.4224 
     55 C         -80.0266   24.0836  -77.0664 C.2       3 UNK         0.4895 
     56 O         -79.9993   23.0724  -77.7679 O.2       3 UNK        -0.5091 
     57 CA        -79.7531   25.4422  -77.7392 C.3       3 UNK         0.0250 
     58 CB        -80.9147   25.8341  -78.6674 C.3       3 UNK        -0.1996 
     59 N         -79.4995   26.5216  -76.7825 N.am      3 UNK        -0.4254 
     60 C         -78.3225   26.7109  -76.1659 C.2       2 UNK         0.5004 
     61 O         -77.3245   26.0315  -76.4012 O.2       2 UNK        -0.5226 
     62 CA        -78.2482   27.8016  -75.0787 C.3       2 UNK         0.0269 
     63 CB        -77.6138   29.0862  -75.6328 C.3       2 UNK        -0.1926 
     64 N         -79.5415   28.1172  -74.4611 N.am      2 UNK        -0.4687 
     65 C         -80.2739   27.2325  -73.7713 C.2       1 UNK         0.5165 
     66 O         -79.9119   26.0732  -73.5579 O.2       1 UNK        -0.5079 
     67 H67       -84.4138   25.0875  -74.7259 H         1 UNK         0.0900 
     68 H68       -84.7486   26.0182  -76.1875 H         1 UNK         0.0900 
     69 H69       -83.4659   24.8039  -76.1880 H         1 UNK         0.0900 
     70 H70       -83.1444   26.1602  -73.2051 H         1 UNK         0.2959 
     71 H71       -81.8870   28.6603  -73.7500 H         1 UNK         0.1079 
     72 H72       -81.2750   26.9713  -71.2743 H         1 UNK         0.0837 
     73 H73       -82.8412   27.6930  -71.4770 H         1 UNK         0.0837 
     74 H74       -80.2803   28.1173  -69.3563 H         1 UNK         0.0685 
     75 H75       -79.7682   29.7815  -69.3021 H         1 UNK         0.0685 
     76 H76       -78.9246   26.4710  -70.5443 H         1 UNK         0.1434 
     77 H77       -75.2466   27.7309  -72.3561 H         1 UNK         0.1329 
     78 H78       -78.0579   30.6482  -70.9540 H         1 UNK         0.1335 
     79 H79       -75.1232   30.1132  -73.0776 H         1 UNK         0.0680 
     80 H80       -76.1917   31.3219  -72.4000 H         1 UNK         0.0680 
     81 H81       -72.5137   32.2559  -70.9548 H         1 UNK         0.1032 
     82 H82       -73.9642   33.0738  -71.4494 H         1 UNK         0.1032 
     83 H83       -73.8931   32.0896  -73.6677 H         1 UNK         0.0461 
     84 H84       -70.5262   33.6954  -74.7367 H         1 UNK         0.3453 
     85 H85       -70.8861   31.9858  -74.7248 H         1 UNK         0.3453 
     86 H86       -72.9577   30.1659  -74.1439 H         1 UNK         0.2984 
     87 H87       -69.9709   28.5445  -73.4012 H         1 UNK         0.0554 
     88 H88       -71.3805   27.6273  -71.5452 H         1 UNK         0.0847 
     89 H89       -71.3887   26.5544  -72.9355 H         1 UNK         0.0847 
     90 H90       -72.7790   27.5889  -72.6088 H         1 UNK         0.0847 
     91 H91       -72.2304   27.8313  -75.0237 H         1 UNK         0.3141 
     92 H92       -72.5660   29.2833  -77.3108 H         1 UNK         0.0743 
     93 H93       -69.7350   28.9792  -78.4401 H         1 UNK         0.0784 
     94 H94       -71.2058   29.1674  -79.3966 H         1 UNK         0.0784 
     95 H95       -70.6632   30.4703  -78.3566 H         1 UNK         0.0784 
     96 H96       -71.0592   26.9149  -78.0518 H         1 UNK         0.3213 
     97 H97       -72.2700   24.9984  -78.2742 H         1 UNK         0.0855 
     98 H98       -72.3185   24.4617  -75.2395 H         1 UNK         0.0814 
     99 H99       -70.8674   24.7018  -76.2054 H         1 UNK         0.0814 
    100 H100      -71.8719   23.2857  -76.4736 H         1 UNK         0.0814 
    101 H101      -74.7313   25.1510  -76.6971 H         1 UNK         0.3105 
    102 H102      -76.5892   24.1848  -78.3677 H         1 UNK         0.0547 
    103 H103      -77.5471   21.8891  -78.6167 H         1 UNK         0.0837 
    104 H104      -75.9431   21.1906  -78.3965 H         1 UNK         0.0837 
    105 H105      -76.2813   22.2007  -79.7927 H         1 UNK         0.0837 
    106 H106      -77.0893   23.9999  -76.2404 H         1 UNK         0.3020 
    107 H107      -76.7368   21.4231  -73.8531 H         1 UNK         0.1245 
    108 H108      -74.8189   23.0197  -73.2937 H         1 UNK         0.0781 
    109 H109      -76.1570   22.9570  -72.1981 H         1 UNK         0.0781 
    110 H110      -75.8730   25.2338  -70.9403 H         1 UNK         0.0836 
    111 H111      -77.5032   24.8294  -71.4349 H         1 UNK         0.0836 
    112 H112      -78.2782   23.8905  -74.1597 H         1 UNK         0.3022 
    113 H113      -81.0883   22.1409  -75.5817 H         1 UNK         0.0747 
    114 H114      -82.1650   23.6264  -73.8600 H         1 UNK         0.0793 
    115 H115      -81.4811   22.1631  -73.1724 H         1 UNK         0.0793 
    116 H116      -80.6398   23.6881  -72.9763 H         1 UNK         0.0793 
    117 H117      -80.2510   24.9188  -75.2109 H         1 UNK         0.3047 
    118 H118      -78.8646   25.3182  -78.3621 H         1 UNK         0.0822 
    119 H119      -80.7386   26.7999  -79.1414 H         1 UNK         0.0807 
    120 H120      -81.8636   25.8880  -78.1347 H         1 UNK         0.0807 
    121 H121      -81.0367   25.1005  -79.4653 H         1 UNK         0.0807 
    122 H122      -80.2950   27.0948  -76.5225 H         1 UNK         0.2946 
    123 H123      -77.5970   27.4155  -74.2938 H         1 UNK         0.1144 
    124 H124      -77.4673   29.8259  -74.8455 H         1 UNK         0.0793 
    125 H125      -78.2280   29.5371  -76.4131 H         1 UNK         0.0793 
    126 H126      -76.6336   28.8782  -76.0651 H         1 UNK         0.0793 
    127 H127      -79.9051   29.0467  -74.6149 H         1 UNK         0.2896 
@<TRIPOS>BOND
     1    1    2 1    
     2    1   67 1    
     3    1   68 1    
     4    1   69 1    
     5    2    3 2    
     6    2    4 am   BACKBONE|DICT|INTERRES
     7    4    5 1    
     8    4   70 1    
     9    5    6 1    
    10    5   65 1    
    11    5   71 1    
    12    6    7 1    
    13    6   72 1    
    14    6   73 1    
    15    7    8 1    
    16    8    9 1    
    17    8   74 1    
    18    8   75 1    
    19    9   10 ar   
    20    9   14 ar   
    21   10   11 ar   
    22   10   76 1    
    23   11   12 ar   
    24   11   48 1    
    25   12   13 ar   
    26   12   77 1    
    27   13   14 ar   
    28   13   15 1    
    29   14   78 1    
    30   15   16 1    
    31   15   79 1    
    32   15   80 1    
    33   16   17 1    
    34   17   18 1    
    35   17   81 1    
    36   17   82 1    
    37   18   19 1    
    38   18   22 1    
    39   18   83 1    
    40   19   20 am   BACKBONE|DICT|INTERRES
    41   19   21 2    
    42   20   84 1    
    43   20   85 1    
    44   22   23 am   BACKBONE|DICT|INTERRES
    45   22   86 1    
    46   23   24 2    
    47   23   25 1    
    48   25   26 1    
    49   25   27 1    
    50   25   87 1    
    51   26   88 1    
    52   26   89 1    
    53   26   90 1    
    54   27   28 am   BACKBONE|DICT|INTERRES
    55   27   91 1    
    56   28   29 2    
    57   28   30 1    
    58   30   31 1    
    59   30   32 1    
    60   30   92 1    
    61   31   93 1    
    62   31   94 1    
    63   31   95 1    
    64   32   33 am   BACKBONE|DICT|INTERRES
    65   32   96 1    
    66   33   34 2    
    67   33   35 1    
    68   35   36 1    
    69   35   37 1    
    70   35   97 1    
    71   36   98 1    
    72   36   99 1    
    73   36  100 1    
    74   37   38 am   BACKBONE|DICT|INTERRES
    75   37  101 1    
    76   38   39 2    
    77   38   40 1    
    78   40   41 1    
    79   40   42 1    
    80   40  102 1    
    81   41  103 1    
    82   41  104 1    
    83   41  105 1    
    84   42   43 am   BACKBONE|DICT|INTERRES
    85   42  106 1    
    86   43   44 2    
    87   43   45 1    
    88   45   46 1    
    89   45   49 1    
    90   45  107 1    
    91   46   47 1    
    92   46  108 1    
    93   46  109 1    
    94   47   48 1    
    95   48  110 1    
    96   48  111 1    
    97   49   50 am   BACKBONE|DICT|INTERRES
    98   49  112 1    
    99   50   51 2    
   100   50   52 1    
   101   52   53 1    
   102   52   54 1    
   103   52  113 1    
   104   53  114 1    
   105   53  115 1    
   106   53  116 1    
   107   54   55 am   BACKBONE|DICT|INTERRES
   108   54  117 1    
   109   55   56 2    
   110   55   57 1    
   111   57   58 1    
   112   57   59 1    
   113   57  118 1    
   114   58  119 1    
   115   58  120 1    
   116   58  121 1    
   117   59   60 am   BACKBONE|DICT|INTERRES
   118   59  122 1    
   119   60   61 2    
   120   60   62 1    
   121   62   63 1    
   122   62   64 1    
   123   62  123 1    
   124   63  124 1    
   125   63  125 1    
   126   63  126 1    
   127   64   65 am   BACKBONE|DICT|INTERRES
   128   64  127 1    
   129   65   66 2    
@<TRIPOS>SUBSTRUCTURE
     1 UNK         1 GROUP             0       ****    0 ROOT    
