@<TRIPOS>MOLECULE
3R135
127   129    1
SMALL
USER_CHARGES


@<TRIPOS>ATOM
      1 CA        -79.4767   23.9978  -70.7591 C.3       0 UNK        -0.1998 
      2 C         -79.1087   25.4448  -70.4394 C.2       0 UNK         0.4909 
      3 O         -78.1703   25.6722  -69.6788 O.2       0 UNK        -0.5240 
      4 N         -79.8133   26.4493  -70.9763 N.am      1 UNK        -0.4739 
      5 CA        -80.9788   26.3527  -71.8673 C.3       1 UNK         0.0864 
      6 C6        -81.9038   27.6053  -71.7852 C.3       11 UNK        -0.0881 
      7 S7        -82.0190   28.3564  -70.1176 S.3       11 UNK        -0.2682 
      8 C8        -81.4159   30.0633  -70.3763 C.3       11 UNK         0.0289 
      9 C9        -80.1327   30.1452  -71.1975 C.ar      11 UNK        -0.0687 
     10 C10       -80.1806   30.6207  -72.5129 C.ar      11 UNK        -0.0823 
     11 C11       -79.0256   30.6870  -73.2968 C.ar      11 UNK        -0.0830 
     12 C12       -77.8035   30.3103  -72.7310 C.ar      11 UNK        -0.1021 
     13 C13       -77.7405   29.8158  -71.4250 C.ar      11 UNK        -0.0753 
     14 C14       -78.9070   29.7437  -70.6562 C.ar      11 UNK        -0.0933 
     15 C15       -76.4083   29.3284  -70.8779 C.3       11 UNK         0.0166 
     16 S16       -75.8609   27.8639  -71.8043 S.3       11 UNK        -0.2615 
     17 C17       -74.1535   27.6354  -71.2141 C.3       11 UNK        -0.0865 
     18 CA        -73.1168   28.5325  -71.9425 C.3       10 UNK         0.0862 
     19 C         -71.6847   28.2975  -71.3733 C.2       10 UNK         0.5551 
     20 N         -70.6898   27.9274  -72.1716 N.am      10 UNK        -0.7319 
     21 O         -71.4708   28.4616  -70.1746 O.2       10 UNK        -0.5018 
     22 N         -73.2166   28.4515  -73.4120 N.am      10 UNK        -0.4509 
     23 C         -72.7576   29.3991  -74.2409 C.2       10 UNK         0.4899 
     24 O         -72.2760   30.4655  -73.8536 O.2       10 UNK        -0.4839 
     25 CA        -72.8406   29.1047  -75.7520 C.3       9 UNK         0.0222 
     26 CB        -71.9660   30.0562  -76.5951 C.3       9 UNK        -0.1966 
     27 N         -72.5495   27.7094  -76.1072 N.am      9 UNK        -0.4218 
     28 C         -71.4506   27.0018  -75.8017 C.2       9 UNK         0.5020 
     29 O         -70.5274   27.4306  -75.1075 O.2       9 UNK        -0.5274 
     30 CA        -71.3527   25.5710  -76.3593 C.3       8 UNK         0.0270 
     31 CB        -71.7572   24.5297  -75.3027 C.3       8 UNK        -0.1976 
     32 N         -72.1331   25.3614  -77.5826 N.am      8 UNK        -0.4313 
     33 C         -71.7710   25.7871  -78.7988 C.2       8 UNK         0.5041 
     34 O         -70.7503   26.4418  -79.0145 O.2       8 UNK        -0.5577 
     35 CA        -72.6757   25.4048  -79.9857 C.3       7 UNK         0.0284 
     36 CB        -72.5636   23.9010  -80.3089 C.3       7 UNK        -0.1958 
     37 N         -74.0795   25.8243  -79.8635 N.am      7 UNK        -0.4454 
     38 C         -74.9985   25.4278  -78.9739 C.2       7 UNK         0.5089 
     39 O         -74.7809   24.6309  -78.0584 O.2       7 UNK        -0.5125 
     40 CA        -76.4095   26.0147  -79.1500 C.3       6 UNK         0.0408 
     41 CB        -77.3747   24.9417  -79.6772 C.3       6 UNK        -0.1791 
     42 N         -76.9174   26.5390  -77.8844 N.am      6 UNK        -0.4762 
     43 C         -76.4073   27.6024  -77.2452 C.2       6 UNK         0.5007 
     44 O         -75.5471   28.3368  -77.7313 O.2       6 UNK        -0.5032 
     45 CA        -76.8993   27.8443  -75.8029 C.3       5 UNK         0.0783 
     46 C46       -78.2243   28.6490  -75.7704 C.3       11 UNK        -0.0857 
     47 S47       -77.9154   30.4444  -75.9047 S.3       11 UNK        -0.2512 
     48 C48       -79.1366   31.1626  -74.7463 C.3       11 UNK         0.0225 
     49 N         -76.9990   26.5762  -75.0776 N.am      5 UNK        -0.4615 
     50 C         -75.9506   25.8109  -74.7415 C.2       4 UNK         0.5053 
     51 O         -74.7833   26.1793  -74.8680 O.2       4 UNK        -0.5105 
     52 CA        -76.2317   24.4052  -74.1856 C.3       4 UNK         0.0263 
     53 CB        -76.1118   24.3862  -72.6559 C.3       4 UNK        -0.1981 
     54 N         -77.5613   23.9231  -74.5679 N.am      4 UNK        -0.4224 
     55 C         -77.7939   22.9592  -75.4701 C.2       3 UNK         0.4895 
     56 O         -76.9075   22.3200  -76.0370 O.2       3 UNK        -0.5091 
     57 CA        -79.2629   22.6264  -75.7983 C.3       3 UNK         0.0250 
     58 CB        -79.7127   21.3782  -75.0211 C.3       3 UNK        -0.1996 
     59 N         -80.2082   23.7152  -75.5369 N.am      3 UNK        -0.4254 
     60 C         -80.2301   24.8880  -76.1845 C.2       2 UNK         0.5004 
     61 O         -79.4445   25.1963  -77.0802 O.2       2 UNK        -0.5226 
     62 CA        -81.2676   25.9184  -75.7036 C.3       2 UNK         0.0269 
     63 CB        -82.6098   25.7021  -76.4201 C.3       2 UNK        -0.1926 
     64 N         -81.4890   25.9550  -74.2484 N.am      2 UNK        -0.4687 
     65 C         -80.5278   26.1029  -73.3238 C.2       1 UNK         0.5165 
     66 O         -79.3268   26.0599  -73.5976 O.2       1 UNK        -0.5079 
     67 H67       -78.7673   23.3146  -70.2925 H         1 UNK         0.0900 
     68 H68       -79.4509   23.8107  -71.8316 H         1 UNK         0.0900 
     69 H69       -80.4682   23.7552  -70.3783 H         1 UNK         0.0900 
     70 H70       -79.5175   27.3958  -70.7863 H         1 UNK         0.2959 
     71 H71       -81.5732   25.4912  -71.5587 H         1 UNK         0.1079 
     72 H72       -81.6024   28.3658  -72.5043 H         1 UNK         0.0837 
     73 H73       -82.9165   27.3299  -72.0842 H         1 UNK         0.0837 
     74 H74       -82.2098   30.6412  -70.8521 H         1 UNK         0.0685 
     75 H75       -81.2493   30.5271  -69.4031 H         1 UNK         0.0685 
     76 H76       -81.1292   30.9224  -72.9360 H         1 UNK         0.1434 
     77 H77       -76.8961   30.3587  -73.3165 H         1 UNK         0.1329 
     78 H78       -78.8665   29.3628  -69.6446 H         1 UNK         0.1335 
     79 H79       -75.6675   30.1236  -70.9699 H         1 UNK         0.0680 
     80 H80       -76.4827   29.0802  -69.8180 H         1 UNK         0.0680 
     81 H81       -74.1330   27.8152  -70.1374 H         1 UNK         0.1032 
     82 H82       -73.8943   26.5840  -71.3471 H         1 UNK         0.1032 
     83 H83       -73.3610   29.5609  -71.6702 H         1 UNK         0.0461 
     84 H84       -69.7736   27.7861  -71.7778 H         1 UNK         0.3453 
     85 H85       -70.8282   27.8119  -73.1702 H         1 UNK         0.3453 
     86 H86       -73.6226   27.6068  -73.8005 H         1 UNK         0.2984 
     87 H87       -73.8783   29.2865  -76.0264 H         1 UNK         0.0554 
     88 H88       -72.0741   29.8526  -77.6604 H         1 UNK         0.0847 
     89 H89       -70.9095   29.9628  -76.3411 H         1 UNK         0.0847 
     90 H90       -72.2499   31.0972  -76.4361 H         1 UNK         0.0847 
     91 H91       -73.2835   27.2280  -76.6090 H         1 UNK         0.3141 
     92 H92       -70.3006   25.4010  -76.5986 H         1 UNK         0.0743 
     93 H93       -71.2205   24.6909  -74.3666 H         1 UNK         0.0784 
     94 H94       -72.8222   24.5662  -75.0787 H         1 UNK         0.0784 
     95 H95       -71.5245   23.5190  -75.6382 H         1 UNK         0.0784 
     96 H96       -73.0276   24.8792  -77.5034 H         1 UNK         0.3213 
     97 H97       -72.2880   25.9453  -80.8512 H         1 UNK         0.0855 
     98 H98       -72.9444   23.2757  -79.5009 H         1 UNK         0.0814 
     99 H99       -71.5238   23.6159  -80.4745 H         1 UNK         0.0814 
    100 H100      -73.1156   23.6489  -81.2143 H         1 UNK         0.0814 
    101 H101      -74.3697   26.5137  -80.5440 H         1 UNK         0.3105 
    102 H102      -76.3765   26.8344  -79.8707 H         1 UNK         0.0547 
    103 H103      -78.3739   25.3487  -79.8334 H         1 UNK         0.0837 
    104 H104      -77.0325   24.5414  -80.6323 H         1 UNK         0.0837 
    105 H105      -77.4616   24.1041  -78.9831 H         1 UNK         0.0837 
    106 H106      -77.6369   25.9880  -77.4250 H         1 UNK         0.3020 
    107 H107      -76.1308   28.4261  -75.2884 H         1 UNK         0.1245 
    108 H108      -78.7470   28.4594  -74.8323 H         1 UNK         0.0781 
    109 H109      -78.9111   28.3368  -76.5593 H         1 UNK         0.0781 
    110 H110      -79.0308   32.2479  -74.7616 H         1 UNK         0.0836 
    111 H111      -80.1330   30.9453  -75.1345 H         1 UNK         0.0836 
    112 H112      -77.9299   26.2793  -74.8044 H         1 UNK         0.3022 
    113 H113      -75.4592   23.7472  -74.5888 H         1 UNK         0.0747 
    114 H114      -76.2848   23.3880  -72.2541 H         1 UNK         0.0793 
    115 H115      -76.8271   25.0648  -72.1927 H         1 UNK         0.0793 
    116 H116      -75.1153   24.6963  -72.3408 H         1 UNK         0.0793 
    117 H117      -78.3480   24.4285  -74.1749 H         1 UNK         0.3047 
    118 H118      -79.3088   22.4004  -76.8659 H         1 UNK         0.0822 
    119 H119      -79.0487   20.5351  -75.2182 H         1 UNK         0.0807 
    120 H120      -80.7174   21.0696  -75.3106 H         1 UNK         0.0807 
    121 H121      -79.7093   21.5499  -73.9439 H         1 UNK         0.0807 
    122 H122      -80.8905   23.5629  -74.8086 H         1 UNK         0.2946 
    123 H123      -80.8886   26.9010  -75.9918 H         1 UNK         0.1144 
    124 H124      -82.4770   25.6875  -77.5031 H         1 UNK         0.0793 
    125 H125      -83.3146   26.5027  -76.1948 H         1 UNK         0.0793 
    126 H126      -83.0725   24.7562  -76.1358 H         1 UNK         0.0793 
    127 H127      -82.4540   25.9759  -73.9502 H         1 UNK         0.2896 
@<TRIPOS>BOND
     1    1    2 1    
     2    1   67 1    
     3    1   68 1    
     4    1   69 1    
     5    2    3 2    
     6    2    4 am   BACKBONE|DICT|INTERRES
     7    4    5 1    
     8    4   70 1    
     9    5    6 1    
    10    5   65 1    
    11    5   71 1    
    12    6    7 1    
    13    6   72 1    
    14    6   73 1    
    15    7    8 1    
    16    8    9 1    
    17    8   74 1    
    18    8   75 1    
    19    9   10 ar   
    20    9   14 ar   
    21   10   11 ar   
    22   10   76 1    
    23   11   12 ar   
    24   11   48 1    
    25   12   13 ar   
    26   12   77 1    
    27   13   14 ar   
    28   13   15 1    
    29   14   78 1    
    30   15   16 1    
    31   15   79 1    
    32   15   80 1    
    33   16   17 1    
    34   17   18 1    
    35   17   81 1    
    36   17   82 1    
    37   18   19 1    
    38   18   22 1    
    39   18   83 1    
    40   19   20 am   BACKBONE|DICT|INTERRES
    41   19   21 2    
    42   20   84 1    
    43   20   85 1    
    44   22   23 am   BACKBONE|DICT|INTERRES
    45   22   86 1    
    46   23   24 2    
    47   23   25 1    
    48   25   26 1    
    49   25   27 1    
    50   25   87 1    
    51   26   88 1    
    52   26   89 1    
    53   26   90 1    
    54   27   28 am   BACKBONE|DICT|INTERRES
    55   27   91 1    
    56   28   29 2    
    57   28   30 1    
    58   30   31 1    
    59   30   32 1    
    60   30   92 1    
    61   31   93 1    
    62   31   94 1    
    63   31   95 1    
    64   32   33 am   BACKBONE|DICT|INTERRES
    65   32   96 1    
    66   33   34 2    
    67   33   35 1    
    68   35   36 1    
    69   35   37 1    
    70   35   97 1    
    71   36   98 1    
    72   36   99 1    
    73   36  100 1    
    74   37   38 am   BACKBONE|DICT|INTERRES
    75   37  101 1    
    76   38   39 2    
    77   38   40 1    
    78   40   41 1    
    79   40   42 1    
    80   40  102 1    
    81   41  103 1    
    82   41  104 1    
    83   41  105 1    
    84   42   43 am   BACKBONE|DICT|INTERRES
    85   42  106 1    
    86   43   44 2    
    87   43   45 1    
    88   45   46 1    
    89   45   49 1    
    90   45  107 1    
    91   46   47 1    
    92   46  108 1    
    93   46  109 1    
    94   47   48 1    
    95   48  110 1    
    96   48  111 1    
    97   49   50 am   BACKBONE|DICT|INTERRES
    98   49  112 1    
    99   50   51 2    
   100   50   52 1    
   101   52   53 1    
   102   52   54 1    
   103   52  113 1    
   104   53  114 1    
   105   53  115 1    
   106   53  116 1    
   107   54   55 am   BACKBONE|DICT|INTERRES
   108   54  117 1    
   109   55   56 2    
   110   55   57 1    
   111   57   58 1    
   112   57   59 1    
   113   57  118 1    
   114   58  119 1    
   115   58  120 1    
   116   58  121 1    
   117   59   60 am   BACKBONE|DICT|INTERRES
   118   59  122 1    
   119   60   61 2    
   120   60   62 1    
   121   62   63 1    
   122   62   64 1    
   123   62  123 1    
   124   63  124 1    
   125   63  125 1    
   126   63  126 1    
   127   64   65 am   BACKBONE|DICT|INTERRES
   128   64  127 1    
   129   65   66 2    
@<TRIPOS>SUBSTRUCTURE
     1 UNK         1 GROUP             0       ****    0 ROOT    
