@<TRIPOS>MOLECULE
3R135
127   129    1
SMALL
USER_CHARGES


@<TRIPOS>ATOM
      1 CA        -84.9140   30.6274  -75.7552 C.3       0 UNK        -0.1998 
      2 C         -84.0105   29.4459  -75.4368 C.2       0 UNK         0.4909 
      3 O         -84.5057   28.3341  -75.2466 O.2       0 UNK        -0.5240 
      4 N         -82.6906   29.6784  -75.3842 N.am      1 UNK        -0.4739 
      5 CA        -81.6172   28.7102  -75.1133 C.3       1 UNK         0.0864 
      6 C6        -81.7826   27.9753  -73.7537 C.3       11 UNK        -0.0881 
      7 S7        -80.2351   27.2131  -73.1656 S.3       11 UNK        -0.2682 
      8 C8        -79.6736   28.4597  -71.9650 C.3       11 UNK         0.0289 
      9 C9        -78.3186   28.1056  -71.3678 C.ar      11 UNK        -0.0687 
     10 C10       -78.1729   26.9455  -70.6009 C.ar      11 UNK        -0.0823 
     11 C11       -76.9404   26.6218  -70.0260 C.ar      11 UNK        -0.0830 
     12 C12       -75.8549   27.4841  -70.1996 C.ar      11 UNK        -0.1021 
     13 C13       -75.9882   28.6514  -70.9567 C.ar      11 UNK        -0.0753 
     14 C14       -77.2192   28.9521  -71.5490 C.ar      11 UNK        -0.0933 
     15 C15       -74.8061   29.5967  -71.1015 C.3       11 UNK         0.0166 
     16 S16       -73.5925   28.9660  -72.2974 S.3       11 UNK        -0.2615 
     17 C17       -72.2402   30.1779  -72.0896 C.3       11 UNK        -0.0865 
     18 CA        -72.1474   31.1943  -73.2572 C.3       10 UNK         0.0862 
     19 C         -70.9836   32.1925  -73.0044 C.2       10 UNK         0.5551 
     20 N         -71.2837   33.3815  -72.5000 N.am      10 UNK        -0.7319 
     21 O         -69.8135   31.8773  -73.2121 O.2       10 UNK        -0.5018 
     22 N         -72.0538   30.4898  -74.5419 N.am      10 UNK        -0.4509 
     23 C         -71.9184   31.0207  -75.7629 C.2       10 UNK         0.4899 
     24 O         -71.8694   32.2306  -75.9883 O.2       10 UNK        -0.4839 
     25 CA        -71.8877   30.0267  -76.9418 C.3       9 UNK         0.0222 
     26 CB        -70.9204   30.4604  -78.0640 C.3       9 UNK        -0.1966 
     27 N         -71.6662   28.6306  -76.5333 N.am      9 UNK        -0.4218 
     28 C         -70.5393   28.0764  -76.0515 C.2       9 UNK         0.5020 
     29 O         -69.4772   28.6859  -75.9248 O.2       9 UNK        -0.5274 
     30 CA        -70.5978   26.6019  -75.5950 C.3       8 UNK         0.0270 
     31 CB        -70.4787   26.5123  -74.0634 C.3       8 UNK        -0.1976 
     32 N         -71.8139   25.8984  -76.0077 N.am      8 UNK        -0.4313 
     33 C         -72.1273   25.5610  -77.2661 C.2       8 UNK         0.5041 
     34 O         -71.3527   25.6796  -78.2160 O.2       8 UNK        -0.5577 
     35 CA        -73.5581   25.0464  -77.5206 C.3       7 UNK         0.0284 
     36 CB        -73.5413   23.5361  -77.8021 C.3       7 UNK        -0.1958 
     37 N         -74.5182   25.3462  -76.4447 N.am      7 UNK        -0.4454 
     38 C         -74.8768   26.5843  -76.0619 C.2       7 UNK         0.5089 
     39 O         -74.3948   27.6018  -76.5620 O.2       7 UNK        -0.5125 
     40 CA        -75.9144   26.7422  -74.9342 C.3       6 UNK         0.0408 
     41 CB        -77.1834   27.4236  -75.4653 C.3       6 UNK        -0.1791 
     42 N         -76.2777   25.4895  -74.2666 N.am      6 UNK        -0.4762 
     43 C         -75.5057   24.8580  -73.3671 C.2       6 UNK         0.5007 
     44 O         -74.3905   25.2612  -73.0347 O.2       6 UNK        -0.5032 
     45 CA        -76.0262   23.5111  -72.8055 C.3       5 UNK         0.0783 
     46 C46       -76.8303   23.6825  -71.4931 C.3       11 UNK        -0.0857 
     47 S47       -75.7824   24.0905  -70.0564 S.3       11 UNK        -0.2512 
     48 C48       -76.7844   25.3509  -69.2028 C.3       11 UNK         0.0225 
     49 N         -76.8129   22.7575  -73.7868 N.am      5 UNK        -0.4615 
     50 C         -76.3701   22.3336  -74.9771 C.2       4 UNK         0.5053 
     51 O         -75.2065   22.4662  -75.3501 O.2       4 UNK        -0.5105 
     52 CA        -77.3945   21.6890  -75.9299 C.3       4 UNK         0.0263 
     53 CB        -77.2146   20.1627  -75.9531 C.3       4 UNK        -0.1981 
     54 N         -78.7984   22.0053  -75.6329 N.am      4 UNK        -0.4224 
     55 C         -79.3380   23.2327  -75.6369 C.2       3 UNK         0.4895 
     56 O         -78.6935   24.2663  -75.8288 O.2       3 UNK        -0.5091 
     57 CA        -80.8348   23.3091  -75.2944 C.3       3 UNK         0.0250 
     58 CB        -81.0287   23.3737  -73.7701 C.3       3 UNK        -0.1996 
     59 N         -81.4821   24.4701  -75.9063 N.am      3 UNK        -0.4254 
     60 C         -81.7181   24.6186  -77.2180 C.2       2 UNK         0.5004 
     61 O         -81.4542   23.7575  -78.0589 O.2       2 UNK        -0.5226 
     62 CA        -82.3895   25.9282  -77.6768 C.3       2 UNK         0.0269 
     63 CB        -83.8289   25.6617  -78.1485 C.3       2 UNK        -0.1926 
     64 N         -82.4220   26.9612  -76.6380 N.am      2 UNK        -0.4687 
     65 C         -81.3899   27.7397  -76.2922 C.2       1 UNK         0.5165 
     66 O         -80.3039   27.7243  -76.8710 O.2       1 UNK        -0.5079 
     67 H67       -85.4794   30.4316  -76.6659 H         1 UNK         0.0900 
     68 H68       -84.3483   31.5480  -75.8982 H         1 UNK         0.0900 
     69 H69       -85.6217   30.7872  -74.9422 H         1 UNK         0.0900 
     70 H70       -82.3645   30.6153  -75.5804 H         1 UNK         0.2959 
     71 H71       -80.7115   29.3158  -75.0435 H         1 UNK         0.1079 
     72 H72       -82.1355   28.6754  -72.9948 H         1 UNK         0.0837 
     73 H73       -82.5488   27.2004  -73.8100 H         1 UNK         0.0837 
     74 H74       -80.4065   28.5435  -71.1614 H         1 UNK         0.0685 
     75 H75       -79.6351   29.4333  -72.4562 H         1 UNK         0.0685 
     76 H76       -79.0234   26.2923  -70.4599 H         1 UNK         0.1434 
     77 H77       -74.9012   27.2429  -69.7498 H         1 UNK         0.1329 
     78 H78       -77.3252   29.8551  -72.1344 H         1 UNK         0.1335 
     79 H79       -75.1389   30.5873  -71.4157 H         1 UNK         0.0680 
     80 H80       -74.3285   29.7228  -70.1286 H         1 UNK         0.0680 
     81 H81       -71.3062   29.6190  -72.0010 H         1 UNK         0.1032 
     82 H82       -72.3622   30.7008  -71.1391 H         1 UNK         0.1032 
     83 H83       -73.0803   31.7607  -73.2870 H         1 UNK         0.0461 
     84 H84       -70.5401   34.0359  -72.3122 H         1 UNK         0.3453 
     85 H85       -72.2395   33.6448  -72.3167 H         1 UNK         0.3453 
     86 H86       -72.1050   29.4850  -74.4778 H         1 UNK         0.2984 
     87 H87       -72.8941   30.0434  -77.3626 H         1 UNK         0.0554 
     88 H88       -71.2177   31.4218  -78.4846 H         1 UNK         0.0847 
     89 H89       -70.9112   29.7398  -78.8817 H         1 UNK         0.0847 
     90 H90       -69.8985   30.5720  -77.7011 H         1 UNK         0.0847 
     91 H91       -72.5030   28.0532  -76.5725 H         1 UNK         0.3141 
     92 H92       -69.7412   26.0906  -76.0392 H         1 UNK         0.0743 
     93 H93       -69.5704   27.0029  -73.7104 H         1 UNK         0.0784 
     94 H94       -71.3225   26.9896  -73.5628 H         1 UNK         0.0784 
     95 H95       -70.4341   25.4757  -73.7287 H         1 UNK         0.0784 
     96 H96       -72.5122   25.7433  -75.2933 H         1 UNK         0.3213 
     97 H97       -73.9183   25.5512  -78.4196 H         1 UNK         0.0855 
     98 H98       -73.1522   22.9732  -76.9529 H         1 UNK         0.0814 
     99 H99       -72.9071   23.3064  -78.6595 H         1 UNK         0.0814 
    100 H100      -74.5389   23.1599  -78.0290 H         1 UNK         0.0814 
    101 H101      -74.9289   24.5508  -75.9693 H         1 UNK         0.3105 
    102 H102      -75.4727   27.4078  -74.1898 H         1 UNK         0.0547 
    103 H103      -76.9475   28.3515  -75.9878 H         1 UNK         0.0837 
    104 H104      -77.7268   26.7858  -76.1631 H         1 UNK         0.0837 
    105 H105      -77.8559   27.6838  -74.6508 H         1 UNK         0.0837 
    106 H106      -77.1560   25.0673  -74.5502 H         1 UNK         0.3020 
    107 H107      -75.1444   22.9037  -72.5880 H         1 UNK         0.1245 
    108 H108      -77.3388   22.7497  -71.2439 H         1 UNK         0.0781 
    109 H109      -77.6214   24.4216  -71.6236 H         1 UNK         0.0781 
    110 H110      -77.7576   24.9259  -68.9520 H         1 UNK         0.0836 
    111 H111      -76.3068   25.5961  -68.2530 H         1 UNK         0.0836 
    112 H112      -77.7845   22.6052  -73.5635 H         1 UNK         0.3022 
    113 H113      -77.1802   22.0732  -76.9294 H         1 UNK         0.0747 
    114 H114      -76.1868   19.8940  -76.2022 H         1 UNK         0.0793 
    115 H115      -77.8573   19.6974  -76.7008 H         1 UNK         0.0793 
    116 H116      -77.4428   19.7142  -74.9853 H         1 UNK         0.0793 
    117 H117      -79.3998   21.2165  -75.4406 H         1 UNK         0.3047 
    118 H118      -81.3278   22.4114  -75.6740 H         1 UNK         0.0822 
    119 H119      -82.0844   23.4355  -73.5052 H         1 UNK         0.0807 
    120 H120      -80.5229   24.2360  -73.3344 H         1 UNK         0.0807 
    121 H121      -80.6280   22.4831  -73.2843 H         1 UNK         0.0807 
    122 H122      -81.6938   25.2459  -75.2975 H         1 UNK         0.2946 
    123 H123      -81.8129   26.3029  -78.5258 H         1 UNK         0.1144 
    124 H124      -83.8487   24.9215  -78.9497 H         1 UNK         0.0793 
    125 H125      -84.2933   26.5687  -78.5362 H         1 UNK         0.0793 
    126 H126      -84.4548   25.2839  -77.3389 H         1 UNK         0.0793 
    127 H127      -83.2993   27.1047  -76.1443 H         1 UNK         0.2896 
@<TRIPOS>BOND
     1    1    2 1    
     2    1   67 1    
     3    1   68 1    
     4    1   69 1    
     5    2    3 2    
     6    2    4 am   BACKBONE|DICT|INTERRES
     7    4    5 1    
     8    4   70 1    
     9    5    6 1    
    10    5   65 1    
    11    5   71 1    
    12    6    7 1    
    13    6   72 1    
    14    6   73 1    
    15    7    8 1    
    16    8    9 1    
    17    8   74 1    
    18    8   75 1    
    19    9   10 ar   
    20    9   14 ar   
    21   10   11 ar   
    22   10   76 1    
    23   11   12 ar   
    24   11   48 1    
    25   12   13 ar   
    26   12   77 1    
    27   13   14 ar   
    28   13   15 1    
    29   14   78 1    
    30   15   16 1    
    31   15   79 1    
    32   15   80 1    
    33   16   17 1    
    34   17   18 1    
    35   17   81 1    
    36   17   82 1    
    37   18   19 1    
    38   18   22 1    
    39   18   83 1    
    40   19   20 am   BACKBONE|DICT|INTERRES
    41   19   21 2    
    42   20   84 1    
    43   20   85 1    
    44   22   23 am   BACKBONE|DICT|INTERRES
    45   22   86 1    
    46   23   24 2    
    47   23   25 1    
    48   25   26 1    
    49   25   27 1    
    50   25   87 1    
    51   26   88 1    
    52   26   89 1    
    53   26   90 1    
    54   27   28 am   BACKBONE|DICT|INTERRES
    55   27   91 1    
    56   28   29 2    
    57   28   30 1    
    58   30   31 1    
    59   30   32 1    
    60   30   92 1    
    61   31   93 1    
    62   31   94 1    
    63   31   95 1    
    64   32   33 am   BACKBONE|DICT|INTERRES
    65   32   96 1    
    66   33   34 2    
    67   33   35 1    
    68   35   36 1    
    69   35   37 1    
    70   35   97 1    
    71   36   98 1    
    72   36   99 1    
    73   36  100 1    
    74   37   38 am   BACKBONE|DICT|INTERRES
    75   37  101 1    
    76   38   39 2    
    77   38   40 1    
    78   40   41 1    
    79   40   42 1    
    80   40  102 1    
    81   41  103 1    
    82   41  104 1    
    83   41  105 1    
    84   42   43 am   BACKBONE|DICT|INTERRES
    85   42  106 1    
    86   43   44 2    
    87   43   45 1    
    88   45   46 1    
    89   45   49 1    
    90   45  107 1    
    91   46   47 1    
    92   46  108 1    
    93   46  109 1    
    94   47   48 1    
    95   48  110 1    
    96   48  111 1    
    97   49   50 am   BACKBONE|DICT|INTERRES
    98   49  112 1    
    99   50   51 2    
   100   50   52 1    
   101   52   53 1    
   102   52   54 1    
   103   52  113 1    
   104   53  114 1    
   105   53  115 1    
   106   53  116 1    
   107   54   55 am   BACKBONE|DICT|INTERRES
   108   54  117 1    
   109   55   56 2    
   110   55   57 1    
   111   57   58 1    
   112   57   59 1    
   113   57  118 1    
   114   58  119 1    
   115   58  120 1    
   116   58  121 1    
   117   59   60 am   BACKBONE|DICT|INTERRES
   118   59  122 1    
   119   60   61 2    
   120   60   62 1    
   121   62   63 1    
   122   62   64 1    
   123   62  123 1    
   124   63  124 1    
   125   63  125 1    
   126   63  126 1    
   127   64   65 am   BACKBONE|DICT|INTERRES
   128   64  127 1    
   129   65   66 2    
@<TRIPOS>SUBSTRUCTURE
     1 UNK         1 GROUP             0       ****    0 ROOT    
