@<TRIPOS>MOLECULE
3R135
127   129    1
SMALL
USER_CHARGES


@<TRIPOS>ATOM
      1 CA        -81.1672   23.7607  -72.5584 C.3       0 UNK        -0.1998 
      2 C         -82.2288   24.7181  -73.0776 C.2       0 UNK         0.4909 
      3 O         -83.3848   24.3230  -73.2286 O.2       0 UNK        -0.5240 
      4 N         -81.8450   25.9742  -73.3352 N.am      1 UNK        -0.4739 
      5 CA        -82.6929   27.0247  -73.9061 C.3       1 UNK         0.0864 
      6 C6        -82.2197   28.4474  -73.4893 C.3       11 UNK        -0.0881 
      7 S7        -80.4211   28.7343  -73.6795 S.3       11 UNK        -0.2682 
      8 C8        -79.8722   28.8310  -71.9439 C.3       11 UNK         0.0289 
      9 C9        -78.3608   28.6823  -71.8080 C.ar      11 UNK        -0.0687 
     10 C10       -77.8246   27.7828  -70.8809 C.ar      11 UNK        -0.0823 
     11 C11       -76.4395   27.6340  -70.7499 C.ar      11 UNK        -0.0830 
     12 C12       -75.5872   28.3888  -71.5613 C.ar      11 UNK        -0.1021 
     13 C13       -76.1104   29.2898  -72.4927 C.ar      11 UNK        -0.0753 
     14 C14       -77.4946   29.4445  -72.5982 C.ar      11 UNK        -0.0933 
     15 C15       -75.1931   30.0654  -73.4225 C.3       11 UNK         0.0166 
     16 S16       -74.6213   31.6236  -72.6741 S.3       11 UNK        -0.2615 
     17 C17       -73.0000   31.1376  -71.9852 C.3       11 UNK        -0.0865 
     18 CA        -71.8291   31.4570  -72.9544 C.3       10 UNK         0.0862 
     19 C         -70.4474   31.2062  -72.2804 C.2       10 UNK         0.5551 
     20 N         -69.5786   30.3555  -72.8161 N.am      10 UNK        -0.7319 
     21 O         -70.1544   31.8056  -71.2489 O.2       10 UNK        -0.5018 
     22 N         -72.0024   30.7636  -74.2380 N.am      10 UNK        -0.4509 
     23 C         -71.5184   31.1609  -75.4190 C.2       10 UNK         0.4899 
     24 O         -70.9076   32.2166  -75.5919 O.2       10 UNK        -0.4839 
     25 CA        -71.7656   30.2002  -76.6020 C.3       9 UNK         0.0222 
     26 CB        -70.7433   30.3887  -77.7425 C.3       9 UNK        -0.1966 
     27 N         -71.8425   28.7848  -76.2045 N.am      9 UNK        -0.4218 
     28 C         -70.8923   28.0681  -75.5777 C.2       9 UNK         0.5020 
     29 O         -69.8114   28.5380  -75.2187 O.2       9 UNK        -0.5274 
     30 CA        -71.2004   26.5954  -75.2449 C.3       8 UNK         0.0270 
     31 CB        -71.3364   26.4138  -73.7232 C.3       8 UNK        -0.1976 
     32 N         -72.4040   26.0796  -75.9056 N.am      8 UNK        -0.4313 
     33 C         -72.4835   25.7907  -77.2148 C.2       8 UNK         0.5041 
     34 O         -71.5242   25.8747  -77.9827 O.2       8 UNK        -0.5577 
     35 CA        -73.8477   25.3538  -77.7847 C.3       7 UNK         0.0284 
     36 CB        -73.8243   23.8610  -78.1510 C.3       7 UNK        -0.1958 
     37 N         -74.9822   25.6178  -76.8952 N.am      7 UNK        -0.4454 
     38 C         -75.4385   26.8395  -76.5761 C.2       7 UNK         0.5089 
     39 O         -74.9548   27.8825  -77.0182 O.2       7 UNK        -0.5125 
     40 CA        -76.5886   26.9178  -75.5515 C.3       6 UNK         0.0408 
     41 CB        -77.9368   27.0180  -76.2772 C.3       6 UNK        -0.1791 
     42 N         -76.6271   25.7980  -74.6023 N.am      6 UNK        -0.4762 
     43 C         -75.6141   25.4486  -73.7914 C.2       6 UNK         0.5007 
     44 O         -74.5383   26.0477  -73.7653 O.2       6 UNK        -0.5032 
     45 CA        -75.7828   24.1688  -72.9396 C.3       5 UNK         0.0783 
     46 C46       -76.2464   24.4758  -71.4938 C.3       11 UNK        -0.0857 
     47 S47       -74.9561   25.2783  -70.4823 S.3       11 UNK        -0.2512 
     48 C48       -75.8663   26.6641  -69.7237 C.3       11 UNK         0.0225 
     49 N         -76.6606   23.1673  -73.5546 N.am      5 UNK        -0.4615 
     50 C         -76.5262   22.6221  -74.7710 C.2       4 UNK         0.5053 
     51 O         -75.6232   22.9077  -75.5571 O.2       4 UNK        -0.5105 
     52 CA        -77.6065   21.6131  -75.2027 C.3       4 UNK         0.0263 
     53 CB        -78.3811   20.9871  -74.0204 C.3       4 UNK        -0.1981 
     54 N         -78.5475   22.1811  -76.1760 N.am      4 UNK        -0.4224 
     55 C         -79.2592   23.3115  -76.0566 C.2       3 UNK         0.4895 
     56 O         -79.1729   24.0984  -75.1071 O.2       3 UNK        -0.5091 
     57 CA        -80.2600   23.5953  -77.1833 C.3       3 UNK         0.0250 
     58 CB        -81.4772   22.6555  -77.0870 C.3       3 UNK        -0.1996 
     59 N         -80.6972   24.9794  -77.0618 N.am      3 UNK        -0.4254 
     60 C         -81.2487   25.7382  -78.0149 C.2       2 UNK         0.5004 
     61 O         -81.4674   25.3424  -79.1611 O.2       2 UNK        -0.5226 
     62 CA        -81.5930   27.1898  -77.6187 C.3       2 UNK         0.0269 
     63 CB        -82.7563   27.7790  -78.4453 C.3       2 UNK        -0.1926 
     64 N         -81.8231   27.3542  -76.1746 N.am      2 UNK        -0.4687 
     65 C         -82.8063   26.8224  -75.4320 C.2       1 UNK         0.5165 
     66 O         -83.7429   26.1691  -75.8936 O.2       1 UNK        -0.5079 
     67 H67       -80.1834   24.2278  -72.5132 H         1 UNK         0.0900 
     68 H68       -81.1002   22.8941  -73.2151 H         1 UNK         0.0900 
     69 H69       -81.4274   23.4140  -71.5587 H         1 UNK         0.0900 
     70 H70       -80.8781   26.2351  -73.2016 H         1 UNK         0.2959 
     71 H71       -83.7038   26.9004  -73.5102 H         1 UNK         0.1079 
     72 H72       -82.4940   28.6210  -72.4477 H         1 UNK         0.0837 
     73 H73       -82.7571   29.2125  -74.0532 H         1 UNK         0.0837 
     74 H74       -80.3807   28.0556  -71.3685 H         1 UNK         0.0685 
     75 H75       -80.1792   29.7887  -71.5218 H         1 UNK         0.0685 
     76 H76       -78.4872   27.1972  -70.2582 H         1 UNK         0.1434 
     77 H77       -74.5177   28.2550  -71.4800 H         1 UNK         0.1329 
     78 H78       -77.9008   30.1433  -73.3165 H         1 UNK         0.1335 
     79 H79       -74.3508   29.4380  -73.7147 H         1 UNK         0.0680 
     80 H80       -75.7195   30.3017  -74.3486 H         1 UNK         0.0680 
     81 H81       -72.8731   31.6810  -71.0469 H         1 UNK         0.1032 
     82 H82       -73.0065   30.0803  -71.7173 H         1 UNK         0.1032 
     83 H83       -71.8620   32.5297  -73.1553 H         1 UNK         0.0461 
     84 H84       -68.6899   30.2149  -72.3632 H         1 UNK         0.3453 
     85 H85       -69.7864   29.8579  -73.6748 H         1 UNK         0.3453 
     86 H86       -72.4682   29.8715  -74.1976 H         1 UNK         0.2984 
     87 H87       -72.7503   30.4555  -76.9961 H         1 UNK         0.0554 
     88 H88       -70.9452   29.7114  -78.5723 H         1 UNK         0.0847 
     89 H89       -69.7223   30.2090  -77.4040 H         1 UNK         0.0847 
     90 H90       -70.7798   31.4040  -78.1392 H         1 UNK         0.0847 
     91 H91       -72.7079   28.3141  -76.4412 H         1 UNK         0.3141 
     92 H92       -70.3474   26.0023  -75.5814 H         1 UNK         0.0743 
     93 H93       -70.4108   26.6850  -73.2135 H         1 UNK         0.0784 
     94 H94       -72.1275   27.0403  -73.3094 H         1 UNK         0.0784 
     95 H95       -71.5577   25.3788  -73.4621 H         1 UNK         0.0784 
     96 H96       -73.2332   25.9889  -75.3249 H         1 UNK         0.3213 
     97 H97       -74.0085   25.9246  -78.7019 H         1 UNK         0.0855 
     98 H98       -73.0527   23.6542  -78.8939 H         1 UNK         0.0814 
     99 H99       -74.7756   23.5376  -78.5739 H         1 UNK         0.0814 
    100 H100      -73.6124   23.2366  -77.2825 H         1 UNK         0.0814 
    101 H101      -75.3982   24.8094  -76.4435 H         1 UNK         0.3105 
    102 H102      -76.4476   27.8286  -74.9688 H         1 UNK         0.0547 
    103 H103      -78.1044   26.1589  -76.9270 H         1 UNK         0.0837 
    104 H104      -78.7632   27.0753  -75.5703 H         1 UNK         0.0837 
    105 H105      -77.9778   27.9123  -76.9003 H         1 UNK         0.0837 
    106 H106      -77.4660   25.2265  -74.6016 H         1 UNK         0.3020 
    107 H107      -74.7939   23.7077  -72.8869 H         1 UNK         0.1245 
    108 H108      -76.5030   23.5472  -70.9813 H         1 UNK         0.0781 
    109 H109      -77.1619   25.0687  -71.5019 H         1 UNK         0.0781 
    110 H110      -75.1897   27.2078  -69.0629 H         1 UNK         0.0836 
    111 H111      -76.6541   26.2608  -69.0855 H         1 UNK         0.0836 
    112 H112      -77.4645   22.8910  -73.0113 H         1 UNK         0.3022 
    113 H113      -77.0786   20.8060  -75.7131 H         1 UNK         0.0747 
    114 H114      -79.0429   20.1933  -74.3671 H         1 UNK         0.0793 
    115 H115      -77.7006   20.5383  -73.2953 H         1 UNK         0.0793 
    116 H116      -78.9970   21.7158  -73.4937 H         1 UNK         0.0793 
    117 H117      -78.6721   21.6341  -77.0166 H         1 UNK         0.3047 
    118 H118      -79.7550   23.4605  -78.1421 H         1 UNK         0.0822 
    119 H119      -81.1803   21.6092  -77.1658 H         1 UNK         0.0807 
    120 H120      -82.1917   22.8467  -77.8878 H         1 UNK         0.0807 
    121 H121      -82.0019   22.7771  -76.1380 H         1 UNK         0.0807 
    122 H122      -80.5157   25.3811  -76.1506 H         1 UNK         0.2946 
    123 H123      -80.7021   27.7753  -77.8514 H         1 UNK         0.1144 
    124 H124      -82.5069   27.8044  -79.5068 H         1 UNK         0.0793 
    125 H125      -82.9803   28.8018  -78.1427 H         1 UNK         0.0793 
    126 H126      -83.6681   27.1902  -78.3431 H         1 UNK         0.0793 
    127 H127      -81.1209   27.8876  -75.6747 H         1 UNK         0.2896 
@<TRIPOS>BOND
     1    1    2 1    
     2    1   67 1    
     3    1   68 1    
     4    1   69 1    
     5    2    3 2    
     6    2    4 am   BACKBONE|DICT|INTERRES
     7    4    5 1    
     8    4   70 1    
     9    5    6 1    
    10    5   65 1    
    11    5   71 1    
    12    6    7 1    
    13    6   72 1    
    14    6   73 1    
    15    7    8 1    
    16    8    9 1    
    17    8   74 1    
    18    8   75 1    
    19    9   10 ar   
    20    9   14 ar   
    21   10   11 ar   
    22   10   76 1    
    23   11   12 ar   
    24   11   48 1    
    25   12   13 ar   
    26   12   77 1    
    27   13   14 ar   
    28   13   15 1    
    29   14   78 1    
    30   15   16 1    
    31   15   79 1    
    32   15   80 1    
    33   16   17 1    
    34   17   18 1    
    35   17   81 1    
    36   17   82 1    
    37   18   19 1    
    38   18   22 1    
    39   18   83 1    
    40   19   20 am   BACKBONE|DICT|INTERRES
    41   19   21 2    
    42   20   84 1    
    43   20   85 1    
    44   22   23 am   BACKBONE|DICT|INTERRES
    45   22   86 1    
    46   23   24 2    
    47   23   25 1    
    48   25   26 1    
    49   25   27 1    
    50   25   87 1    
    51   26   88 1    
    52   26   89 1    
    53   26   90 1    
    54   27   28 am   BACKBONE|DICT|INTERRES
    55   27   91 1    
    56   28   29 2    
    57   28   30 1    
    58   30   31 1    
    59   30   32 1    
    60   30   92 1    
    61   31   93 1    
    62   31   94 1    
    63   31   95 1    
    64   32   33 am   BACKBONE|DICT|INTERRES
    65   32   96 1    
    66   33   34 2    
    67   33   35 1    
    68   35   36 1    
    69   35   37 1    
    70   35   97 1    
    71   36   98 1    
    72   36   99 1    
    73   36  100 1    
    74   37   38 am   BACKBONE|DICT|INTERRES
    75   37  101 1    
    76   38   39 2    
    77   38   40 1    
    78   40   41 1    
    79   40   42 1    
    80   40  102 1    
    81   41  103 1    
    82   41  104 1    
    83   41  105 1    
    84   42   43 am   BACKBONE|DICT|INTERRES
    85   42  106 1    
    86   43   44 2    
    87   43   45 1    
    88   45   46 1    
    89   45   49 1    
    90   45  107 1    
    91   46   47 1    
    92   46  108 1    
    93   46  109 1    
    94   47   48 1    
    95   48  110 1    
    96   48  111 1    
    97   49   50 am   BACKBONE|DICT|INTERRES
    98   49  112 1    
    99   50   51 2    
   100   50   52 1    
   101   52   53 1    
   102   52   54 1    
   103   52  113 1    
   104   53  114 1    
   105   53  115 1    
   106   53  116 1    
   107   54   55 am   BACKBONE|DICT|INTERRES
   108   54  117 1    
   109   55   56 2    
   110   55   57 1    
   111   57   58 1    
   112   57   59 1    
   113   57  118 1    
   114   58  119 1    
   115   58  120 1    
   116   58  121 1    
   117   59   60 am   BACKBONE|DICT|INTERRES
   118   59  122 1    
   119   60   61 2    
   120   60   62 1    
   121   62   63 1    
   122   62   64 1    
   123   62  123 1    
   124   63  124 1    
   125   63  125 1    
   126   63  126 1    
   127   64   65 am   BACKBONE|DICT|INTERRES
   128   64  127 1    
   129   65   66 2    
@<TRIPOS>SUBSTRUCTURE
     1 UNK         1 GROUP             0       ****    0 ROOT    
