@<TRIPOS>MOLECULE
3R135
127   129    1
SMALL
USER_CHARGES


@<TRIPOS>ATOM
      1 CA        -77.3947   25.4194  -71.3021 C.3       0 UNK        -0.1998 
      2 C         -78.8156   25.0096  -70.9471 C.2       0 UNK         0.4909 
      3 O         -79.0158   24.0727  -70.1733 O.2       0 UNK        -0.5240 
      4 N         -79.8083   25.6967  -71.5207 N.am      1 UNK        -0.4739 
      5 CA        -81.2470   25.4530  -71.3676 C.3       1 UNK         0.0864 
      6 C6        -82.0874   26.7374  -71.6365 C.3       11 UNK        -0.0881 
      7 S7        -81.4638   27.7927  -73.0008 S.3       11 UNK        -0.2682 
      8 C8        -80.7426   29.1824  -72.0678 C.3       11 UNK         0.0289 
      9 C9        -79.4376   29.6602  -72.6850 C.ar      11 UNK        -0.0687 
     10 C10       -79.4491   30.5792  -73.7387 C.ar      11 UNK        -0.0823 
     11 C11       -78.2500   31.0569  -74.2780 C.ar      11 UNK        -0.0830 
     12 C12       -77.0346   30.6036  -73.7544 C.ar      11 UNK        -0.1021 
     13 C13       -77.0107   29.6750  -72.7109 C.ar      11 UNK        -0.0753 
     14 C14       -78.2152   29.2079  -72.1779 C.ar      11 UNK        -0.0933 
     15 C15       -75.6819   29.1723  -72.1723 C.3       11 UNK         0.0166 
     16 S16       -74.8072   30.4586  -71.2294 S.3       11 UNK        -0.2615 
     17 C17       -73.3271   29.5387  -70.6860 C.3       11 UNK        -0.0865 
     18 CA        -72.0759   29.7930  -71.5691 C.3       10 UNK         0.0862 
     19 C         -70.8349   29.0862  -70.9458 C.2       10 UNK         0.5551 
     20 N         -70.3403   27.9885  -71.5078 N.am      10 UNK        -0.7319 
     21 O         -70.3162   29.5453  -69.9313 O.2       10 UNK        -0.5018 
     22 N         -72.3232   29.4425  -72.9760 N.am      10 UNK        -0.4509 
     23 C         -71.5182   29.7328  -74.0056 C.2       10 UNK         0.4899 
     24 O         -70.5440   30.4815  -73.9154 O.2       10 UNK        -0.4839 
     25 CA        -71.8496   29.0714  -75.3626 C.3       9 UNK         0.0222 
     26 CB        -70.5781   28.7221  -76.1631 C.3       9 UNK        -0.1966 
     27 N         -72.7319   27.8956  -75.2850 N.am      9 UNK        -0.4218 
     28 C         -72.5338   26.7653  -74.5852 C.2       9 UNK         0.5020 
     29 O         -71.5738   26.5770  -73.8359 O.2       9 UNK        -0.5274 
     30 CA        -73.6040   25.6718  -74.7207 C.3       8 UNK         0.0270 
     31 CB        -74.8557   26.0210  -73.9001 C.3       8 UNK        -0.1976 
     32 N         -73.9901   25.4354  -76.1098 N.am      8 UNK        -0.4313 
     33 C         -73.2164   24.8470  -77.0315 C.2       8 UNK         0.5041 
     34 O         -72.0896   24.4030  -76.8074 O.2       8 UNK        -0.5577 
     35 CA        -73.8033   24.7390  -78.4461 C.3       7 UNK         0.0284 
     36 CB        -74.8280   23.5945  -78.5313 C.3       7 UNK        -0.1958 
     37 N         -74.4247   25.9975  -78.8615 N.am      7 UNK        -0.4454 
     38 C         -73.7444   27.0569  -79.3211 C.2       7 UNK         0.5089 
     39 O         -72.5257   27.0644  -79.4958 O.2       7 UNK        -0.5125 
     40 CA        -74.5533   28.3231  -79.6584 C.3       6 UNK         0.0408 
     41 CB        -74.8562   28.3770  -81.1643 C.3       6 UNK        -0.1791 
     42 N         -75.8085   28.4455  -78.9116 N.am      6 UNK        -0.4762 
     43 C         -75.8875   28.7078  -77.5990 C.2       6 UNK         0.5007 
     44 O         -74.9077   28.8264  -76.8623 O.2       6 UNK        -0.5032 
     45 CA        -77.3082   28.7806  -76.9985 C.3       5 UNK         0.0783 
     46 C46       -78.0510   30.0830  -77.3979 C.3       11 UNK        -0.0857 
     47 S47       -77.2345   31.6118  -76.8240 S.3       11 UNK        -0.2512 
     48 C48       -78.2727   32.0858  -75.4024 C.3       11 UNK         0.0225 
     49 N         -78.1232   27.6006  -77.3171 N.am      5 UNK        -0.4615 
     50 C         -77.7677   26.3225  -77.1337 C.2       4 UNK         0.5053 
     51 O         -76.6547   25.9627  -76.7458 O.2       4 UNK        -0.5105 
     52 CA        -78.8167   25.2643  -77.5094 C.3       4 UNK         0.0263 
     53 CB        -78.7428   24.9577  -79.0145 C.3       4 UNK        -0.1981 
     54 N         -78.6346   24.0182  -76.7609 N.am      4 UNK        -0.4224 
     55 C         -78.7762   23.8989  -75.4348 C.2       3 UNK         0.4895 
     56 O         -79.1161   24.8198  -74.6874 O.2       3 UNK        -0.5091 
     57 CA        -78.4554   22.5209  -74.8401 C.3       3 UNK         0.0250 
     58 CB        -76.9919   22.4642  -74.3722 C.3       3 UNK        -0.1996 
     59 N         -79.3343   22.2747  -73.7003 N.am      3 UNK        -0.4254 
     60 C         -80.5393   21.6959  -73.7766 C.2       2 UNK         0.5004 
     61 O         -80.9762   21.1388  -74.7844 O.2       2 UNK        -0.5226 
     62 CA        -81.4148   21.7782  -72.5151 C.3       2 UNK         0.0269 
     63 CB        -81.1226   20.6007  -71.5711 C.3       2 UNK        -0.1926 
     64 N         -81.2202   23.0409  -71.7959 N.am      2 UNK        -0.4687 
     65 C         -81.6868   24.2298  -72.2038 C.2       1 UNK         0.5165 
     66 O         -82.4150   24.3687  -73.1885 O.2       1 UNK        -0.5079 
     67 H67       -77.3693   26.0398  -72.1982 H         1 UNK         0.0900 
     68 H68       -76.7808   24.5381  -71.4846 H         1 UNK         0.0900 
     69 H69       -76.9493   25.9803  -70.4810 H         1 UNK         0.0900 
     70 H70       -79.5888   26.4067  -72.2070 H         1 UNK         0.2959 
     71 H71       -81.4306   25.1761  -70.3266 H         1 UNK         0.1079 
     72 H72       -83.1317   26.4922  -71.8394 H         1 UNK         0.0837 
     73 H73       -82.1269   27.3288  -70.7212 H         1 UNK         0.0837 
     74 H74       -80.5606   28.8954  -71.0313 H         1 UNK         0.0685 
     75 H75       -81.4638   30.0003  -72.0324 H         1 UNK         0.0685 
     76 H76       -80.3954   30.9302  -74.1276 H         1 UNK         0.1434 
     77 H77       -76.1025   30.9723  -74.1612 H         1 UNK         0.1329 
     78 H78       -78.2024   28.5000  -71.3606 H         1 UNK         0.1335 
     79 H79       -75.0612   28.8571  -73.0099 H         1 UNK         0.0680 
     80 H80       -75.8303   28.2950  -71.5409 H         1 UNK         0.0680 
     81 H81       -73.1250   29.8431  -69.6570 H         1 UNK         0.1032 
     82 H82       -73.5533   28.4718  -70.6371 H         1 UNK         0.1032 
     83 H83       -71.8641   30.8636  -71.5423 H         1 UNK         0.0461 
     84 H84       -70.7676   27.5887  -72.3379 H         1 UNK         0.3453 
     85 H85       -69.5367   27.5428  -71.0951 H         1 UNK         0.3453 
     86 H86       -73.0933   28.8174  -73.1479 H         1 UNK         0.2984 
     87 H87       -72.4019   29.8203  -75.9317 H         1 UNK         0.0554 
     88 H88       -70.8278   28.2860  -77.1308 H         1 UNK         0.0847 
     89 H89       -69.9483   28.0109  -75.6276 H         1 UNK         0.0847 
     90 H90       -69.9756   29.6104  -76.3565 H         1 UNK         0.0847 
     91 H91       -73.5783   27.9766  -75.8464 H         1 UNK         0.3141 
     92 H92       -73.1847   24.7452  -74.3226 H         1 UNK         0.0743 
     93 H93       -74.6024   26.2204  -72.8581 H         1 UNK         0.0784 
     94 H94       -75.3683   26.8979  -74.2971 H         1 UNK         0.0784 
     95 H95       -75.5695   25.1984  -73.9095 H         1 UNK         0.0784 
     96 H96       -74.9319   25.7230  -76.3777 H         1 UNK         0.3213 
     97 H97       -72.9853   24.5076  -79.1324 H         1 UNK         0.0855 
     98 H98       -75.6695   23.7448  -77.8550 H         1 UNK         0.0814 
     99 H99       -74.3666   22.6425  -78.2656 H         1 UNK         0.0814 
    100 H100      -75.2232   23.4908  -79.5418 H         1 UNK         0.0814 
    101 H101      -75.4141   26.1015  -78.6855 H         1 UNK         0.3105 
    102 H102      -73.9289   29.1836  -79.4078 H         1 UNK         0.0547 
    103 H103      -75.4941   27.5502  -81.4791 H         1 UNK         0.0837 
    104 H104      -75.3519   29.3087  -81.4374 H         1 UNK         0.0837 
    105 H105      -73.9370   28.3191  -81.7492 H         1 UNK         0.0837 
    106 H106      -76.6655   28.3377  -79.4351 H         1 UNK         0.3020 
    107 H107      -77.1873   28.7778  -75.9134 H         1 UNK         0.1245 
    108 H108      -79.0673   30.0654  -77.0009 H         1 UNK         0.0781 
    109 H109      -78.1609   30.1451  -78.4820 H         1 UNK         0.0781 
    110 H110      -79.2910   32.2620  -75.7527 H         1 UNK         0.0836 
    111 H111      -77.9149   33.0386  -75.0101 H         1 UNK         0.0836 
    112 H112      -79.0530   27.7906  -77.6614 H         1 UNK         0.3022 
    113 H113      -79.8083   25.6564  -77.2730 H         1 UNK         0.0747 
    114 H114      -79.5035   24.2347  -79.3097 H         1 UNK         0.0793 
    115 H115      -78.9089   25.8572  -79.6089 H         1 UNK         0.0793 
    116 H116      -77.7697   24.5552  -79.2989 H         1 UNK         0.0793 
    117 H117      -78.3227   23.2178  -77.2905 H         1 UNK         0.3047 
    118 H118      -78.6100   21.7536  -75.6020 H         1 UNK         0.0822 
    119 H119      -76.3073   22.6915  -75.1910 H         1 UNK         0.0807 
    120 H120      -76.7348   21.4727  -73.9994 H         1 UNK         0.0807 
    121 H121      -76.7958   23.1810  -73.5752 H         1 UNK         0.0807 
    122 H122      -79.1008   22.7585  -72.8461 H         1 UNK         0.2946 
    123 H123      -82.4585   21.7152  -72.8325 H         1 UNK         0.1144 
    124 H124      -81.2727   19.6473  -72.0798 H         1 UNK         0.0793 
    125 H125      -81.7856   20.6129  -70.7058 H         1 UNK         0.0793 
    126 H126      -80.0946   20.6184  -71.2068 H         1 UNK         0.0793 
    127 H127      -80.5894   23.0331  -71.0006 H         1 UNK         0.2896 
@<TRIPOS>BOND
     1    1    2 1    
     2    1   67 1    
     3    1   68 1    
     4    1   69 1    
     5    2    3 2    
     6    2    4 am   BACKBONE|DICT|INTERRES
     7    4    5 1    
     8    4   70 1    
     9    5    6 1    
    10    5   65 1    
    11    5   71 1    
    12    6    7 1    
    13    6   72 1    
    14    6   73 1    
    15    7    8 1    
    16    8    9 1    
    17    8   74 1    
    18    8   75 1    
    19    9   10 ar   
    20    9   14 ar   
    21   10   11 ar   
    22   10   76 1    
    23   11   12 ar   
    24   11   48 1    
    25   12   13 ar   
    26   12   77 1    
    27   13   14 ar   
    28   13   15 1    
    29   14   78 1    
    30   15   16 1    
    31   15   79 1    
    32   15   80 1    
    33   16   17 1    
    34   17   18 1    
    35   17   81 1    
    36   17   82 1    
    37   18   19 1    
    38   18   22 1    
    39   18   83 1    
    40   19   20 am   BACKBONE|DICT|INTERRES
    41   19   21 2    
    42   20   84 1    
    43   20   85 1    
    44   22   23 am   BACKBONE|DICT|INTERRES
    45   22   86 1    
    46   23   24 2    
    47   23   25 1    
    48   25   26 1    
    49   25   27 1    
    50   25   87 1    
    51   26   88 1    
    52   26   89 1    
    53   26   90 1    
    54   27   28 am   BACKBONE|DICT|INTERRES
    55   27   91 1    
    56   28   29 2    
    57   28   30 1    
    58   30   31 1    
    59   30   32 1    
    60   30   92 1    
    61   31   93 1    
    62   31   94 1    
    63   31   95 1    
    64   32   33 am   BACKBONE|DICT|INTERRES
    65   32   96 1    
    66   33   34 2    
    67   33   35 1    
    68   35   36 1    
    69   35   37 1    
    70   35   97 1    
    71   36   98 1    
    72   36   99 1    
    73   36  100 1    
    74   37   38 am   BACKBONE|DICT|INTERRES
    75   37  101 1    
    76   38   39 2    
    77   38   40 1    
    78   40   41 1    
    79   40   42 1    
    80   40  102 1    
    81   41  103 1    
    82   41  104 1    
    83   41  105 1    
    84   42   43 am   BACKBONE|DICT|INTERRES
    85   42  106 1    
    86   43   44 2    
    87   43   45 1    
    88   45   46 1    
    89   45   49 1    
    90   45  107 1    
    91   46   47 1    
    92   46  108 1    
    93   46  109 1    
    94   47   48 1    
    95   48  110 1    
    96   48  111 1    
    97   49   50 am   BACKBONE|DICT|INTERRES
    98   49  112 1    
    99   50   51 2    
   100   50   52 1    
   101   52   53 1    
   102   52   54 1    
   103   52  113 1    
   104   53  114 1    
   105   53  115 1    
   106   53  116 1    
   107   54   55 am   BACKBONE|DICT|INTERRES
   108   54  117 1    
   109   55   56 2    
   110   55   57 1    
   111   57   58 1    
   112   57   59 1    
   113   57  118 1    
   114   58  119 1    
   115   58  120 1    
   116   58  121 1    
   117   59   60 am   BACKBONE|DICT|INTERRES
   118   59  122 1    
   119   60   61 2    
   120   60   62 1    
   121   62   63 1    
   122   62   64 1    
   123   62  123 1    
   124   63  124 1    
   125   63  125 1    
   126   63  126 1    
   127   64   65 am   BACKBONE|DICT|INTERRES
   128   64  127 1    
   129   65   66 2    
@<TRIPOS>SUBSTRUCTURE
     1 UNK         1 GROUP             0       ****    0 ROOT    
