@<TRIPOS>MOLECULE
3R135
127   129    1
SMALL
USER_CHARGES


@<TRIPOS>ATOM
      1 CA        -83.7317   22.2610  -72.0068 C.3       0 UNK        -0.1998 
      2 C         -83.4394   23.7423  -72.1902 C.2       0 UNK         0.4909 
      3 O         -84.2523   24.4618  -72.7721 O.2       0 UNK        -0.5240 
      4 N         -82.2767   24.2063  -71.7130 N.am      1 UNK        -0.4739 
      5 CA        -81.8094   25.5965  -71.7943 C.3       1 UNK         0.0864 
      6 C6        -80.8112   25.9006  -70.6451 C.3       11 UNK        -0.0881 
      7 S7        -80.7134   27.6776  -70.2334 S.3       11 UNK        -0.2682 
      8 C8        -78.9093   27.9973  -70.2224 C.3       11 UNK         0.0289 
      9 C9        -78.3981   29.0054  -71.2566 C.ar      11 UNK        -0.0687 
     10 C10       -79.1943   29.5054  -72.2965 C.ar      11 UNK        -0.0823 
     11 C11       -78.6942   30.4649  -73.1825 C.ar      11 UNK        -0.0830 
     12 C12       -77.3844   30.9244  -73.0323 C.ar      11 UNK        -0.1021 
     13 C13       -76.5634   30.4115  -72.0256 C.ar      11 UNK        -0.0753 
     14 C14       -77.0776   29.4560  -71.1430 C.ar      11 UNK        -0.0933 
     15 C15       -75.1310   30.9105  -71.8760 C.3       11 UNK         0.0166 
     16 S16       -74.1354   30.6639  -73.3836 S.3       11 UNK        -0.2615 
     17 C17       -73.9875   28.8460  -73.4344 C.3       11 UNK        -0.0865 
     18 CA        -72.6537   28.3385  -72.8309 C.3       10 UNK         0.0862 
     19 C         -72.6635   26.7900  -72.6565 C.2       10 UNK         0.5551 
     20 N         -71.7977   26.0284  -73.3169 N.am      10 UNK        -0.7319 
     21 O         -73.4569   26.2721  -71.8751 O.2       10 UNK        -0.5018 
     22 N         -71.4960   28.8583  -73.5736 N.am      10 UNK        -0.4509 
     23 C         -70.2518   28.9439  -73.0872 C.2       10 UNK         0.4899 
     24 O         -69.9592   28.6926  -71.9168 O.2       10 UNK        -0.4839 
     25 CA        -69.1492   29.3805  -74.0775 C.3       9 UNK         0.0222 
     26 CB        -67.7475   28.8972  -73.6474 C.3       9 UNK        -0.1966 
     27 N         -69.4123   29.0022  -75.4753 N.am      9 UNK        -0.4218 
     28 C         -69.6370   27.7669  -75.9474 C.2       9 UNK         0.5020 
     29 O         -69.6642   26.7497  -75.2495 O.2       9 UNK        -0.5274 
     30 CA        -69.8637   27.6498  -77.4626 C.3       8 UNK         0.0270 
     31 CB        -68.5609   27.2464  -78.1722 C.3       8 UNK        -0.1976 
     32 N         -70.9052   26.6676  -77.7673 N.am      8 UNK        -0.4313 
     33 C         -72.2063   26.8402  -77.5057 C.2       8 UNK         0.5041 
     34 O         -72.6808   27.8735  -77.0251 O.2       8 UNK        -0.5577 
     35 CA        -73.1227   25.6565  -77.8336 C.3       7 UNK         0.0284 
     36 CB        -73.1076   24.6135  -76.7011 C.3       7 UNK        -0.1958 
     37 N         -74.4796   26.1533  -78.0441 N.am      7 UNK        -0.4454 
     38 C         -75.4034   25.5851  -78.8261 C.2       7 UNK         0.5089 
     39 O         -75.2135   24.5259  -79.4278 O.2       7 UNK        -0.5125 
     40 CA        -76.7540   26.3200  -78.9789 C.3       6 UNK         0.0408 
     41 CB        -77.8094   25.4658  -79.7057 C.3       6 UNK        -0.1791 
     42 N         -77.3134   26.7529  -77.6977 N.am      6 UNK        -0.4762 
     43 C         -76.9504   27.8442  -77.0104 C.2       6 UNK         0.5007 
     44 O         -76.0995   28.6432  -77.4023 O.2       6 UNK        -0.5032 
     45 CA        -77.6201   28.0404  -75.6344 C.3       5 UNK         0.0783 
     46 C46       -79.0335   28.6609  -75.7852 C.3       11 UNK        -0.0857 
     47 S47       -78.9790   30.4753  -75.9462 S.3       11 UNK        -0.2512 
     48 C48       -79.5678   31.0062  -74.3055 C.3       11 UNK         0.0225 
     49 N         -77.6598   26.7978  -74.8551 N.am      5 UNK        -0.4615 
     50 C         -76.5970   26.0524  -74.5167 C.2       4 UNK         0.5053 
     51 O         -75.4366   26.3563  -74.7753 O.2       4 UNK        -0.5105 
     52 CA        -76.8753   24.7300  -73.7893 C.3       4 UNK         0.0263 
     53 CB        -77.0107   24.9633  -72.2780 C.3       4 UNK        -0.1981 
     54 N         -78.0879   24.0932  -74.3046 N.am      4 UNK        -0.4224 
     55 C         -78.1248   23.3256  -75.4038 C.2       3 UNK         0.4895 
     56 O         -77.1254   22.9803  -76.0339 O.2       3 UNK        -0.5091 
     57 CA        -79.5113   22.8705  -75.8962 C.3       3 UNK         0.0250 
     58 CB        -79.8854   21.5149  -75.2751 C.3       3 UNK        -0.1996 
     59 N         -80.5758   23.8382  -75.6188 N.am      3 UNK        -0.4254 
     60 C         -80.6601   25.0604  -76.1634 C.2       2 UNK         0.5004 
     61 O         -79.8681   25.4948  -76.9989 O.2       2 UNK        -0.5226 
     62 CA        -81.7894   25.9703  -75.6471 C.3       2 UNK         0.0269 
     63 CB        -83.0616   25.7741  -76.4857 C.3       2 UNK        -0.1926 
     64 N         -82.1087   25.7778  -74.2269 N.am      2 UNK        -0.4687 
     65 C         -81.2509   25.9014  -73.2036 C.2       1 UNK         0.5165 
     66 O         -80.0597   26.1731  -73.3603 O.2       1 UNK        -0.5079 
     67 H67       -82.9258   21.7475  -71.4827 H         1 UNK         0.0900 
     68 H68       -84.6480   22.1288  -71.4321 H         1 UNK         0.0900 
     69 H69       -83.8654   21.7822  -72.9764 H         1 UNK         0.0900 
     70 H70       -81.6413   23.5614  -71.2644 H         1 UNK         0.2959 
     71 H71       -82.6777   26.2455  -71.6562 H         1 UNK         0.1079 
     72 H72       -79.8275   25.4806  -70.8547 H         1 UNK         0.0837 
     73 H73       -81.1435   25.4044  -69.7317 H         1 UNK         0.0837 
     74 H74       -78.6614   28.3750  -69.2294 H         1 UNK         0.0685 
     75 H75       -78.3520   27.0682  -70.3283 H         1 UNK         0.0685 
     76 H76       -80.2087   29.1571  -72.4238 H         1 UNK         0.1434 
     77 H77       -76.9953   31.6673  -73.7155 H         1 UNK         0.1329 
     78 H78       -76.4504   29.0692  -70.3512 H         1 UNK         0.1335 
     79 H79       -75.1544   31.9758  -71.6429 H         1 UNK         0.0680 
     80 H80       -74.6305   30.4231  -71.0378 H         1 UNK         0.0680 
     81 H81       -74.0670   28.5324  -74.4771 H         1 UNK         0.1032 
     82 H82       -74.8434   28.4008  -72.9237 H         1 UNK         0.1032 
     83 H83       -72.5925   28.7395  -71.8173 H         1 UNK         0.0461 
     84 H84       -71.8177   25.0323  -73.1739 H         1 UNK         0.3453 
     85 H85       -71.1143   26.4315  -73.9497 H         1 UNK         0.3453 
     86 H86       -71.6545   29.0667  -74.5488 H         1 UNK         0.2984 
     87 H87       -69.1426   30.4712  -74.0545 H         1 UNK         0.0554 
     88 H88       -67.4812   29.2860  -72.6637 H         1 UNK         0.0847 
     89 H89       -66.9796   29.2337  -74.3437 H         1 UNK         0.0847 
     90 H90       -67.6961   27.8092  -73.5915 H         1 UNK         0.0847 
     91 H91       -69.4267   29.7694  -76.1341 H         1 UNK         0.3141 
     92 H92       -70.1863   28.6181  -77.8519 H         1 UNK         0.0743 
     93 H93       -68.1958   26.2781  -77.8267 H         1 UNK         0.0784 
     94 H94       -68.6973   27.1890  -79.2524 H         1 UNK         0.0784 
     95 H95       -67.7721   27.9765  -77.9850 H         1 UNK         0.0784 
     96 H96       -70.5920   25.7737  -78.1174 H         1 UNK         0.3213 
     97 H97       -72.7666   25.1945  -78.7571 H         1 UNK         0.0855 
     98 H98       -73.3914   25.0558  -75.7460 H         1 UNK         0.0814 
     99 H99       -72.1125   24.1858  -76.5751 H         1 UNK         0.0814 
    100 H100      -73.7930   23.7906  -76.9046 H         1 UNK         0.0814 
    101 H101      -74.6782   27.0479  -77.6034 H         1 UNK         0.3105 
    102 H102      -76.5663   27.2033  -79.5926 H         1 UNK         0.0547 
    103 H103      -78.7442   26.0121  -79.8320 H         1 UNK         0.0837 
    104 H104      -78.0308   24.5501  -79.1554 H         1 UNK         0.0837 
    105 H105      -77.4674   25.1774  -80.7005 H         1 UNK         0.0837 
    106 H106      -78.0466   26.1657  -77.3080 H         1 UNK         0.3020 
    107 H107      -76.9901   28.7269  -75.0635 H         1 UNK         0.1245 
    108 H108      -79.6514   28.4139  -74.9217 H         1 UNK         0.0781 
    109 H109      -79.5649   28.2498  -76.6455 H         1 UNK         0.0781 
    110 H110      -80.6056   30.6932  -74.1796 H         1 UNK         0.0836 
    111 H111      -79.5711   32.0964  -74.2655 H         1 UNK         0.0836 
    112 H112      -78.5721   26.5075  -74.5174 H         1 UNK         0.3022 
    113 H113      -76.0224   24.0675  -73.9535 H         1 UNK         0.0747 
    114 H114      -77.2170   24.0349  -71.7456 H         1 UNK         0.0793 
    115 H115      -76.0900   25.3789  -71.8666 H         1 UNK         0.0793 
    116 H116      -77.8097   25.6678  -72.0562 H         1 UNK         0.0793 
    117 H117      -78.9600   24.3794  -73.8794 H         1 UNK         0.3047 
    118 H118      -79.4482   22.7466  -76.9796 H         1 UNK         0.0822 
    119 H119      -80.8250   21.1381  -75.6797 H         1 UNK         0.0807 
    120 H120      -79.9871   21.5798  -74.1910 H         1 UNK         0.0807 
    121 H121      -79.1208   20.7657  -75.4862 H         1 UNK         0.0807 
    122 H122      -81.2764   23.5697  -74.9437 H         1 UNK         0.2946 
    123 H123      -81.4591   27.0023  -75.7708 H         1 UNK         0.1144 
    124 H124      -83.4688   24.7684  -76.3736 H         1 UNK         0.0793 
    125 H125      -82.8582   25.9284  -77.5466 H         1 UNK         0.0793 
    126 H126      -83.8381   26.4840  -76.2002 H         1 UNK         0.0793 
    127 H127      -83.0567   25.4910  -74.0007 H         1 UNK         0.2896 
@<TRIPOS>BOND
     1    1    2 1    
     2    1   67 1    
     3    1   68 1    
     4    1   69 1    
     5    2    3 2    
     6    2    4 am   BACKBONE|DICT|INTERRES
     7    4    5 1    
     8    4   70 1    
     9    5    6 1    
    10    5   65 1    
    11    5   71 1    
    12    6    7 1    
    13    6   72 1    
    14    6   73 1    
    15    7    8 1    
    16    8    9 1    
    17    8   74 1    
    18    8   75 1    
    19    9   10 ar   
    20    9   14 ar   
    21   10   11 ar   
    22   10   76 1    
    23   11   12 ar   
    24   11   48 1    
    25   12   13 ar   
    26   12   77 1    
    27   13   14 ar   
    28   13   15 1    
    29   14   78 1    
    30   15   16 1    
    31   15   79 1    
    32   15   80 1    
    33   16   17 1    
    34   17   18 1    
    35   17   81 1    
    36   17   82 1    
    37   18   19 1    
    38   18   22 1    
    39   18   83 1    
    40   19   20 am   BACKBONE|DICT|INTERRES
    41   19   21 2    
    42   20   84 1    
    43   20   85 1    
    44   22   23 am   BACKBONE|DICT|INTERRES
    45   22   86 1    
    46   23   24 2    
    47   23   25 1    
    48   25   26 1    
    49   25   27 1    
    50   25   87 1    
    51   26   88 1    
    52   26   89 1    
    53   26   90 1    
    54   27   28 am   BACKBONE|DICT|INTERRES
    55   27   91 1    
    56   28   29 2    
    57   28   30 1    
    58   30   31 1    
    59   30   32 1    
    60   30   92 1    
    61   31   93 1    
    62   31   94 1    
    63   31   95 1    
    64   32   33 am   BACKBONE|DICT|INTERRES
    65   32   96 1    
    66   33   34 2    
    67   33   35 1    
    68   35   36 1    
    69   35   37 1    
    70   35   97 1    
    71   36   98 1    
    72   36   99 1    
    73   36  100 1    
    74   37   38 am   BACKBONE|DICT|INTERRES
    75   37  101 1    
    76   38   39 2    
    77   38   40 1    
    78   40   41 1    
    79   40   42 1    
    80   40  102 1    
    81   41  103 1    
    82   41  104 1    
    83   41  105 1    
    84   42   43 am   BACKBONE|DICT|INTERRES
    85   42  106 1    
    86   43   44 2    
    87   43   45 1    
    88   45   46 1    
    89   45   49 1    
    90   45  107 1    
    91   46   47 1    
    92   46  108 1    
    93   46  109 1    
    94   47   48 1    
    95   48  110 1    
    96   48  111 1    
    97   49   50 am   BACKBONE|DICT|INTERRES
    98   49  112 1    
    99   50   51 2    
   100   50   52 1    
   101   52   53 1    
   102   52   54 1    
   103   52  113 1    
   104   53  114 1    
   105   53  115 1    
   106   53  116 1    
   107   54   55 am   BACKBONE|DICT|INTERRES
   108   54  117 1    
   109   55   56 2    
   110   55   57 1    
   111   57   58 1    
   112   57   59 1    
   113   57  118 1    
   114   58  119 1    
   115   58  120 1    
   116   58  121 1    
   117   59   60 am   BACKBONE|DICT|INTERRES
   118   59  122 1    
   119   60   61 2    
   120   60   62 1    
   121   62   63 1    
   122   62   64 1    
   123   62  123 1    
   124   63  124 1    
   125   63  125 1    
   126   63  126 1    
   127   64   65 am   BACKBONE|DICT|INTERRES
   128   64  127 1    
   129   65   66 2    
@<TRIPOS>SUBSTRUCTURE
     1 UNK         1 GROUP             0       ****    0 ROOT    
