@<TRIPOS>MOLECULE
3R135
127   129    1
SMALL
USER_CHARGES


@<TRIPOS>ATOM
      1 CA        -80.7033   22.5907  -70.9227 C.3       0 UNK        -0.1998 
      2 C         -80.4969   23.7300  -71.9076 C.2       0 UNK         0.4909 
      3 O         -79.6492   23.6207  -72.7925 O.2       0 UNK        -0.5240 
      4 N         -81.2807   24.8095  -71.7743 N.am      1 UNK        -0.4739 
      5 CA        -81.2200   26.0588  -72.5548 C.3       1 UNK         0.0864 
      6 C6        -79.9917   26.9496  -72.2260 C.3       11 UNK        -0.0881 
      7 S7        -79.6121   27.1540  -70.4487 S.3       11 UNK        -0.2682 
      8 C8        -79.3543   28.9541  -70.2835 C.3       11 UNK         0.0289 
      9 C9        -78.4361   29.5207  -71.3602 C.ar      11 UNK        -0.0687 
     10 C10       -78.9739   30.3029  -72.3854 C.ar      11 UNK        -0.0823 
     11 C11       -78.1637   30.7844  -73.4158 C.ar      11 UNK        -0.0830 
     12 C12       -76.7929   30.5116  -73.3950 C.ar      11 UNK        -0.1021 
     13 C13       -76.2407   29.7297  -72.3751 C.ar      11 UNK        -0.0753 
     14 C14       -77.0660   29.2418  -71.3555 C.ar      11 UNK        -0.0933 
     15 C15       -74.7617   29.3787  -72.4005 C.3       11 UNK         0.0166 
     16 S16       -73.7248   30.8277  -72.0251 S.3       11 UNK        -0.2615 
     17 C17       -72.5092   30.1440  -70.8460 C.3       11 UNK        -0.0865 
     18 CA        -71.1647   29.7331  -71.5173 C.3       10 UNK         0.0862 
     19 C         -70.0427   29.4313  -70.4752 C.2       10 UNK         0.5551 
     20 N         -69.1165   28.5197  -70.7474 N.am      10 UNK        -0.7319 
     21 O         -69.9871   30.0532  -69.4167 O.2       10 UNK        -0.5018 
     22 N         -71.3236   28.7005  -72.5594 N.am      10 UNK        -0.4509 
     23 C         -71.7769   27.4527  -72.3851 C.2       10 UNK         0.4899 
     24 O         -72.1605   27.0078  -71.3024 O.2       10 UNK        -0.4839 
     25 CA        -71.8060   26.5557  -73.6378 C.3       9 UNK         0.0222 
     26 CB        -72.4275   25.1727  -73.3666 C.3       9 UNK        -0.1966 
     27 N         -72.5179   27.1750  -74.7569 N.am      9 UNK        -0.4218 
     28 C         -72.0227   28.0896  -75.6004 C.2       9 UNK         0.5020 
     29 O         -70.9127   28.6096  -75.4645 O.2       9 UNK        -0.5274 
     30 CA        -72.9253   28.4641  -76.7931 C.3       8 UNK         0.0270 
     31 CB        -72.2123   29.3337  -77.8495 C.3       8 UNK        -0.1976 
     32 N         -73.5380   27.2793  -77.4095 N.am      8 UNK        -0.4313 
     33 C         -72.9187   26.2233  -77.9610 C.2       8 UNK         0.5041 
     34 O         -71.7016   26.1482  -78.1339 O.2       8 UNK        -0.5577 
     35 CA        -73.7968   25.0212  -78.3597 C.3       7 UNK         0.0284 
     36 CB        -73.6427   23.8930  -77.3260 C.3       7 UNK        -0.1958 
     37 N         -75.2186   25.3493  -78.4879 N.am      7 UNK        -0.4454 
     38 C         -75.7592   26.0300  -79.5070 C.2       7 UNK         0.5089 
     39 O         -75.1294   26.4001  -80.4981 O.2       7 UNK        -0.5125 
     40 CA        -77.2480   26.3962  -79.3719 C.3       6 UNK         0.0408 
     41 CB        -78.1465   25.2242  -79.7981 C.3       6 UNK        -0.1791 
     42 N         -77.5997   26.8249  -78.0137 N.am      6 UNK        -0.4762 
     43 C         -77.1412   27.9432  -77.4294 C.2       6 UNK         0.5007 
     44 O         -76.3804   28.7360  -77.9841 O.2       6 UNK        -0.5032 
     45 CA        -77.5537   28.1925  -75.9651 C.3       5 UNK         0.0783 
     46 C46       -78.8830   28.9837  -75.8623 C.3       11 UNK        -0.0857 
     47 S47       -78.6124   30.7649  -76.1911 S.3       11 UNK        -0.2512 
     48 C48       -78.7914   31.5705  -74.5602 C.3       11 UNK         0.0225 
     49 N         -77.5534   26.9447  -75.1910 N.am      5 UNK        -0.4615 
     50 C         -76.4171   26.3412  -74.8053 C.2       4 UNK         0.5053 
     51 O         -75.2993   26.8199  -74.9964 O.2       4 UNK        -0.5105 
     52 CA        -76.5016   24.9543  -74.1521 C.3       4 UNK         0.0263 
     53 CB        -76.4692   25.0334  -72.6164 C.3       4 UNK        -0.1981 
     54 N         -77.6315   24.1426  -74.6072 N.am      4 UNK        -0.4224 
     55 C         -77.7363   23.6378  -75.8447 C.2       3 UNK         0.4895 
     56 O         -76.9489   23.8998  -76.7532 O.2       3 UNK        -0.5091 
     57 CA        -78.9055   22.6853  -76.1193 C.3       3 UNK         0.0250 
     58 CB        -78.6952   21.3433  -75.3979 C.3       3 UNK        -0.1996 
     59 N         -80.1725   23.2755  -75.6936 N.am      3 UNK        -0.4254 
     60 C         -81.0684   23.8345  -76.5189 C.2       2 UNK         0.5004 
     61 O         -80.9348   23.8869  -77.7419 O.2       2 UNK        -0.5226 
     62 CA        -82.3359   24.4413  -75.8837 C.3       2 UNK         0.0269 
     63 CB        -83.5072   23.4497  -75.9748 C.3       2 UNK        -0.1926 
     64 N         -82.1687   24.8583  -74.4872 N.am      2 UNK        -0.4687 
     65 C         -81.3368   25.8280  -74.0815 C.2       1 UNK         0.5165 
     66 O         -80.6411   26.4825  -74.8616 O.2       1 UNK        -0.5079 
     67 H67       -80.9721   21.6792  -71.4557 H         1 UNK         0.0900 
     68 H68       -79.7822   22.4044  -70.3714 H         1 UNK         0.0900 
     69 H69       -81.4916   22.8103  -70.2030 H         1 UNK         0.0900 
     70 H70       -81.9623   24.8161  -71.0281 H         1 UNK         0.2959 
     71 H71       -82.1109   26.6243  -72.2767 H         1 UNK         0.1079 
     72 H72       -79.0964   26.5675  -72.7110 H         1 UNK         0.0837 
     73 H73       -80.1631   27.9298  -72.6679 H         1 UNK         0.0837 
     74 H74       -80.3260   29.4497  -70.3060 H         1 UNK         0.0685 
     75 H75       -78.9298   29.1617  -69.3003 H         1 UNK         0.0685 
     76 H76       -80.0356   30.5086  -72.3981 H         1 UNK         0.1434 
     77 H77       -76.1596   30.8824  -74.1895 H         1 UNK         0.1329 
     78 H78       -76.6505   28.6254  -70.5702 H         1 UNK         0.1335 
     79 H79       -74.4952   29.0003  -73.3882 H         1 UNK         0.0680 
     80 H80       -74.5584   28.5664  -71.7020 H         1 UNK         0.0680 
     81 H81       -72.3330   30.9269  -70.1062 H         1 UNK         0.1032 
     82 H82       -72.9409   29.3140  -70.2857 H         1 UNK         0.1032 
     83 H83       -70.7986   30.6112  -72.0503 H         1 UNK         0.0461 
     84 H84       -68.3882   28.3379  -70.0749 H         1 UNK         0.3453 
     85 H85       -69.1397   28.0143  -71.6182 H         1 UNK         0.3453 
     86 H86       -71.0262   28.9597  -73.4950 H         1 UNK         0.2984 
     87 H87       -70.7681   26.3947  -73.9365 H         1 UNK         0.0554 
     88 H88       -71.8892   24.6483  -72.5760 H         1 UNK         0.0847 
     89 H89       -72.3920   24.5403  -74.2537 H         1 UNK         0.0847 
     90 H90       -73.4683   25.2546  -73.0541 H         1 UNK         0.0847 
     91 H91       -73.4875   26.8908  -74.8919 H         1 UNK         0.3141 
     92 H92       -73.7471   29.0520  -76.3809 H         1 UNK         0.0743 
     93 H93       -71.8595   30.2681  -77.4113 H         1 UNK         0.0784 
     94 H94       -71.3456   28.8269  -78.2749 H         1 UNK         0.0784 
     95 H95       -72.8853   29.5925  -78.6669 H         1 UNK         0.0784 
     96 H96       -74.5421   27.2181  -77.3074 H         1 UNK         0.3213 
     97 H97       -73.4378   24.6566  -79.3246 H         1 UNK         0.0855 
     98 H98       -73.9872   24.2037  -76.3392 H         1 UNK         0.0814 
     99 H99       -72.5992   23.5907  -77.2275 H         1 UNK         0.0814 
    100 H100      -74.2110   23.0087  -77.6152 H         1 UNK         0.0814 
    101 H101      -75.8380   25.0003  -77.7581 H         1 UNK         0.3105 
    102 H102      -77.4457   27.2327  -80.0456 H         1 UNK         0.0547 
    103 H103      -79.2011   25.4983  -79.7638 H         1 UNK         0.0837 
    104 H104      -77.9254   24.9173  -80.8212 H         1 UNK         0.0837 
    105 H105      -78.0099   24.3502  -79.1611 H         1 UNK         0.0837 
    106 H106      -78.1868   26.2024  -77.4773 H         1 UNK         0.3020 
    107 H107      -76.7693   28.8192  -75.5363 H         1 UNK         0.1245 
    108 H108      -79.3219   28.8656  -74.8721 H         1 UNK         0.0781 
    109 H109      -79.6317   28.5976  -76.5567 H         1 UNK         0.0781 
    110 H110      -79.8543   31.7350  -74.3768 H         1 UNK         0.0836 
    111 H111      -78.3362   32.5608  -74.6045 H         1 UNK         0.0836 
    112 H112      -78.4519   26.5119  -75.0135 H         1 UNK         0.3022 
    113 H113      -75.5931   24.4292  -74.4547 H         1 UNK         0.0747 
    114 H114      -76.2007   24.0688  -72.1857 H         1 UNK         0.0793 
    115 H115      -75.7303   25.7576  -72.2700 H         1 UNK         0.0793 
    116 H116      -77.4270   25.3189  -72.1895 H         1 UNK         0.0793 
    117 H117      -78.3386   23.9034  -73.9107 H         1 UNK         0.3047 
    118 H118      -78.9225   22.4848  -77.1929 H         1 UNK         0.0822 
    119 H119      -77.7475   20.8882  -75.6891 H         1 UNK         0.0807 
    120 H120      -79.4847   20.6346  -75.6482 H         1 UNK         0.0807 
    121 H121      -78.6832   21.4582  -74.3132 H         1 UNK         0.0807 
    122 H122      -80.3298   23.3296  -74.6931 H         1 UNK         0.2946 
    123 H123      -82.5899   25.3289  -76.4679 H         1 UNK         0.1144 
    124 H124      -84.4350   23.8961  -75.6167 H         1 UNK         0.0793 
    125 H125      -83.3189   22.5479  -75.3908 H         1 UNK         0.0793 
    126 H126      -83.6769   23.1397  -77.0071 H         1 UNK         0.0793 
    127 H127      -82.6876   24.3464  -73.7879 H         1 UNK         0.2896 
@<TRIPOS>BOND
     1    1    2 1    
     2    1   67 1    
     3    1   68 1    
     4    1   69 1    
     5    2    3 2    
     6    2    4 am   BACKBONE|DICT|INTERRES
     7    4    5 1    
     8    4   70 1    
     9    5    6 1    
    10    5   65 1    
    11    5   71 1    
    12    6    7 1    
    13    6   72 1    
    14    6   73 1    
    15    7    8 1    
    16    8    9 1    
    17    8   74 1    
    18    8   75 1    
    19    9   10 ar   
    20    9   14 ar   
    21   10   11 ar   
    22   10   76 1    
    23   11   12 ar   
    24   11   48 1    
    25   12   13 ar   
    26   12   77 1    
    27   13   14 ar   
    28   13   15 1    
    29   14   78 1    
    30   15   16 1    
    31   15   79 1    
    32   15   80 1    
    33   16   17 1    
    34   17   18 1    
    35   17   81 1    
    36   17   82 1    
    37   18   19 1    
    38   18   22 1    
    39   18   83 1    
    40   19   20 am   BACKBONE|DICT|INTERRES
    41   19   21 2    
    42   20   84 1    
    43   20   85 1    
    44   22   23 am   BACKBONE|DICT|INTERRES
    45   22   86 1    
    46   23   24 2    
    47   23   25 1    
    48   25   26 1    
    49   25   27 1    
    50   25   87 1    
    51   26   88 1    
    52   26   89 1    
    53   26   90 1    
    54   27   28 am   BACKBONE|DICT|INTERRES
    55   27   91 1    
    56   28   29 2    
    57   28   30 1    
    58   30   31 1    
    59   30   32 1    
    60   30   92 1    
    61   31   93 1    
    62   31   94 1    
    63   31   95 1    
    64   32   33 am   BACKBONE|DICT|INTERRES
    65   32   96 1    
    66   33   34 2    
    67   33   35 1    
    68   35   36 1    
    69   35   37 1    
    70   35   97 1    
    71   36   98 1    
    72   36   99 1    
    73   36  100 1    
    74   37   38 am   BACKBONE|DICT|INTERRES
    75   37  101 1    
    76   38   39 2    
    77   38   40 1    
    78   40   41 1    
    79   40   42 1    
    80   40  102 1    
    81   41  103 1    
    82   41  104 1    
    83   41  105 1    
    84   42   43 am   BACKBONE|DICT|INTERRES
    85   42  106 1    
    86   43   44 2    
    87   43   45 1    
    88   45   46 1    
    89   45   49 1    
    90   45  107 1    
    91   46   47 1    
    92   46  108 1    
    93   46  109 1    
    94   47   48 1    
    95   48  110 1    
    96   48  111 1    
    97   49   50 am   BACKBONE|DICT|INTERRES
    98   49  112 1    
    99   50   51 2    
   100   50   52 1    
   101   52   53 1    
   102   52   54 1    
   103   52  113 1    
   104   53  114 1    
   105   53  115 1    
   106   53  116 1    
   107   54   55 am   BACKBONE|DICT|INTERRES
   108   54  117 1    
   109   55   56 2    
   110   55   57 1    
   111   57   58 1    
   112   57   59 1    
   113   57  118 1    
   114   58  119 1    
   115   58  120 1    
   116   58  121 1    
   117   59   60 am   BACKBONE|DICT|INTERRES
   118   59  122 1    
   119   60   61 2    
   120   60   62 1    
   121   62   63 1    
   122   62   64 1    
   123   62  123 1    
   124   63  124 1    
   125   63  125 1    
   126   63  126 1    
   127   64   65 am   BACKBONE|DICT|INTERRES
   128   64  127 1    
   129   65   66 2    
@<TRIPOS>SUBSTRUCTURE
     1 UNK         1 GROUP             0       ****    0 ROOT    
