@<TRIPOS>MOLECULE
3R135
127   129    1
SMALL
USER_CHARGES


@<TRIPOS>ATOM
      1 CA        -78.4947   29.4679  -79.0046 C.3       0 UNK        -0.1998 
      2 C         -79.2828   28.8900  -77.8392 C.2       0 UNK         0.4909 
      3 O         -80.5089   28.8007  -77.9128 O.2       0 UNK        -0.5240 
      4 N         -78.5853   28.4783  -76.7717 N.am      1 UNK        -0.4739 
      5 CA        -79.1082   27.8484  -75.5507 C.3       1 UNK         0.0864 
      6 C6        -80.2258   28.6624  -74.8440 C.3       11 UNK        -0.0881 
      7 S7        -80.2683   28.3771  -73.0435 S.3       11 UNK        -0.2682 
      8 C8        -78.9544   29.5158  -72.4690 C.3       11 UNK         0.0289 
      9 C9        -77.8543   28.8531  -71.6349 C.ar      11 UNK        -0.0687 
     10 C10       -77.5273   27.4971  -71.7733 C.ar      11 UNK        -0.0823 
     11 C11       -76.5536   26.9092  -70.9610 C.ar      11 UNK        -0.0830 
     12 C12       -75.8798   27.6917  -70.0198 C.ar      11 UNK        -0.1021 
     13 C13       -76.1788   29.0498  -69.8794 C.ar      11 UNK        -0.0753 
     14 C14       -77.1588   29.6247  -70.6956 C.ar      11 UNK        -0.0933 
     15 C15       -75.5015   29.8658  -68.7854 C.3       11 UNK         0.0166 
     16 S16       -73.7584   30.2404  -69.1554 S.3       11 UNK        -0.2615 
     17 C17       -73.8921   31.7105  -70.2366 C.3       11 UNK        -0.0865 
     18 CA        -73.1774   31.5446  -71.6033 C.3       10 UNK         0.0862 
     19 C         -71.6228   31.5551  -71.4732 C.2       10 UNK         0.5551 
     20 N         -70.9003   30.5459  -71.9467 N.am      10 UNK        -0.7319 
     21 O         -71.0605   32.5102  -70.9426 O.2       10 UNK        -0.5018 
     22 N         -73.7398   30.4127  -72.3493 N.am      10 UNK        -0.4509 
     23 C         -73.6412   30.2279  -73.6679 C.2       10 UNK         0.4899 
     24 O         -73.1267   31.0281  -74.4516 O.2       10 UNK        -0.4839 
     25 CA        -74.2665   28.9289  -74.1897 C.3       9 UNK         0.0222 
     26 CB        -75.6800   29.1974  -74.7084 C.3       9 UNK        -0.1966 
     27 N         -73.4919   28.2863  -75.2507 N.am      9 UNK        -0.4218 
     28 C         -72.2258   27.8578  -75.1446 C.2       9 UNK         0.5020 
     29 O         -71.5502   27.9816  -74.1208 O.2       9 UNK        -0.5274 
     30 CA        -71.6143   27.1310  -76.3596 C.3       8 UNK         0.0270 
     31 CB        -71.0717   25.7485  -75.9547 C.3       8 UNK        -0.1976 
     32 N         -72.5581   26.9655  -77.4726 N.am      8 UNK        -0.4313 
     33 C         -72.7661   27.8806  -78.4314 C.2       8 UNK         0.5041 
     34 O         -72.1680   28.9558  -78.4803 O.2       8 UNK        -0.5577 
     35 CA        -73.8100   27.5666  -79.5218 C.3       7 UNK         0.0284 
     36 CB        -73.1116   27.1705  -80.8332 C.3       7 UNK        -0.1958 
     37 N         -74.7715   26.5215  -79.1605 N.am      7 UNK        -0.4454 
     38 C         -75.7182   26.6412  -78.2215 C.2       7 UNK         0.5089 
     39 O         -75.8808   27.6587  -77.5456 O.2       7 UNK        -0.5125 
     40 CA        -76.6186   25.4174  -77.9529 C.3       6 UNK         0.0408 
     41 CB        -76.4268   24.2477  -78.9436 C.3       6 UNK        -0.1791 
     42 N         -76.4736   24.9452  -76.5711 N.am      6 UNK        -0.4762 
     43 C         -75.3297   24.5950  -75.9639 C.2       6 UNK         0.5007 
     44 O         -74.2341   24.5844  -76.5284 O.2       6 UNK        -0.5032 
     45 CA        -75.4046   24.2230  -74.4712 C.3       5 UNK         0.0783 
     46 C46       -75.0349   25.4460  -73.6010 C.3       11 UNK        -0.0857 
     47 S47       -74.7119   25.0112  -71.8614 S.3       11 UNK        -0.2512 
     48 C48       -76.2872   25.4125  -71.0430 C.3       11 UNK         0.0225 
     49 N         -76.6973   23.6479  -74.0785 N.am      5 UNK        -0.4615 
     50 C         -77.0604   22.3840  -74.3264 C.2       4 UNK         0.5053 
     51 O         -76.4219   21.6156  -75.0453 O.2       4 UNK        -0.5105 
     52 CA        -78.3132   21.8731  -73.6055 C.3       4 UNK         0.0263 
     53 CB        -78.0205   21.6696  -72.1030 C.3       4 UNK        -0.1981 
     54 N         -79.4747   22.7440  -73.8117 N.am      4 UNK        -0.4224 
     55 C         -80.7400   22.3743  -73.5502 C.2       3 UNK         0.4895 
     56 O         -81.0478   21.2868  -73.0601 O.2       3 UNK        -0.5091 
     57 CA        -81.8697   23.3625  -73.9013 C.3       3 UNK         0.0250 
     58 CB        -82.2000   24.2484  -72.6889 C.3       3 UNK        -0.1996 
     59 N         -81.5677   24.2182  -75.0476 N.am      3 UNK        -0.4254 
     60 C         -81.3096   23.7955  -76.2924 C.2       2 UNK         0.5004 
     61 O         -81.4405   22.6265  -76.6562 O.2       2 UNK        -0.5226 
     62 CA        -80.7899   24.8378  -77.3019 C.3       2 UNK         0.0269 
     63 CB        -81.8253   25.0778  -78.4129 C.3       2 UNK        -0.1926 
     64 N         -80.3919   26.1392  -76.7464 N.am      2 UNK        -0.4687 
     65 C         -79.4797   26.3757  -75.7938 C.2       1 UNK         0.5165 
     66 O         -78.9007   25.4885  -75.1612 O.2       1 UNK        -0.5079 
     67 H67       -78.8928   30.4444  -79.2791 H         1 UNK         0.0900 
     68 H68       -78.5711   28.8116  -79.8709 H         1 UNK         0.0900 
     69 H69       -77.4392   29.5905  -78.7618 H         1 UNK         0.0900 
     70 H70       -77.5715   28.4894  -76.8425 H         1 UNK         0.2959 
     71 H71       -78.2614   27.8189  -74.8693 H         1 UNK         0.1079 
     72 H72       -81.2093   28.4377  -75.2607 H         1 UNK         0.0837 
     73 H73       -80.0814   29.7307  -75.0128 H         1 UNK         0.0837 
     74 H74       -78.4924   30.0201  -73.3171 H         1 UNK         0.0685 
     75 H75       -79.4362   30.2982  -71.8805 H         1 UNK         0.0685 
     76 H76       -78.0513   26.8823  -72.4909 H         1 UNK         0.1434 
     77 H77       -75.1390   27.2367  -69.3760 H         1 UNK         0.1329 
     78 H78       -77.4050   30.6711  -70.5764 H         1 UNK         0.1335 
     79 H79       -76.0452   30.7916  -68.5906 H         1 UNK         0.0680 
     80 H80       -75.5388   29.2987  -67.8541 H         1 UNK         0.0680 
     81 H81       -73.4979   32.5746  -69.6984 H         1 UNK         0.1032 
     82 H82       -74.9446   31.9382  -70.4109 H         1 UNK         0.1032 
     83 H83       -73.4114   32.4403  -72.1820 H         1 UNK         0.0461 
     84 H84       -69.8972   30.5733  -71.8576 H         1 UNK         0.3453 
     85 H85       -71.3434   29.7689  -72.4155 H         1 UNK         0.3453 
     86 H86       -74.1751   29.6992  -71.7810 H         1 UNK         0.2984 
     87 H87       -74.3318   28.2245  -73.3584 H         1 UNK         0.0554 
     88 H88       -76.1510   28.2630  -74.9995 H         1 UNK         0.0847 
     89 H89       -76.2965   29.6610  -73.9400 H         1 UNK         0.0847 
     90 H90       -75.6766   29.8612  -75.5743 H         1 UNK         0.0847 
     91 H91       -73.9614   28.1640  -76.1377 H         1 UNK         0.3141 
     92 H92       -70.7675   27.7327  -76.6964 H         1 UNK         0.0743 
     93 H93       -70.2821   25.8422  -75.2079 H         1 UNK         0.0784 
     94 H94       -71.8492   25.1175  -75.5238 H         1 UNK         0.0784 
     95 H95       -70.6452   25.2220  -76.8086 H         1 UNK         0.0784 
     96 H96       -73.1133   26.1152  -77.4681 H         1 UNK         0.3213 
     97 H97       -74.3713   28.4868  -79.6998 H         1 UNK         0.0855 
     98 H98       -72.4124   27.9447  -81.1527 H         1 UNK         0.0814 
     99 H99       -73.8301   27.0342  -81.6417 H         1 UNK         0.0814 
    100 H100      -72.5444   26.2450  -80.7255 H         1 UNK         0.0814 
    101 H101      -74.6887   25.6406  -79.6470 H         1 UNK         0.3105 
    102 H102      -77.6442   25.7705  -78.0608 H         1 UNK         0.0547 
    103 H103      -76.6007   24.5656  -79.9725 H         1 UNK         0.0837 
    104 H104      -75.4273   23.8148  -78.8887 H         1 UNK         0.0837 
    105 H105      -77.1373   23.4471  -78.7374 H         1 UNK         0.0837 
    106 H106      -77.3175   24.9666  -76.0046 H         1 UNK         0.3020 
    107 H107      -74.6378   23.4598  -74.3151 H         1 UNK         0.1245 
    108 H108      -74.1128   25.8969  -73.9682 H         1 UNK         0.0781 
    109 H109      -75.8015   26.2185  -73.6643 H         1 UNK         0.0781 
    110 H110      -76.2640   25.0018  -70.0325 H         1 UNK         0.0836 
    111 H111      -77.1060   24.9027  -71.5497 H         1 UNK         0.0836 
    112 H112      -77.2885   24.2253  -73.5018 H         1 UNK         0.3022 
    113 H113      -78.5463   20.8984  -74.0404 H         1 UNK         0.0747 
    114 H114      -78.8141   21.1082  -71.6106 H         1 UNK         0.0793 
    115 H115      -77.0977   21.1067  -71.9552 H         1 UNK         0.0793 
    116 H116      -77.9118   22.6181  -71.5778 H         1 UNK         0.0793 
    117 H117      -79.3081   23.6381  -74.2631 H         1 UNK         0.3047 
    118 H118      -82.7548   22.7741  -74.1521 H         1 UNK         0.0822 
    119 H119      -83.0574   24.8916  -72.8881 H         1 UNK         0.0807 
    120 H120      -81.3587   24.8860  -72.4127 H         1 UNK         0.0807 
    121 H121      -82.4487   23.6409  -71.8175 H         1 UNK         0.0807 
    122 H122      -81.4292   25.1990  -74.8540 H         1 UNK         0.2946 
    123 H123      -79.8990   24.3995  -77.7566 H         1 UNK         0.1144 
    124 H124      -81.4258   25.7232  -79.1956 H         1 UNK         0.0793 
    125 H125      -82.7309   25.5441  -78.0231 H         1 UNK         0.0793 
    126 H126      -82.1189   24.1407  -78.8884 H         1 UNK         0.0793 
    127 H127      -80.7618   26.9592  -77.2195 H         1 UNK         0.2896 
@<TRIPOS>BOND
     1    1    2 1    
     2    1   67 1    
     3    1   68 1    
     4    1   69 1    
     5    2    3 2    
     6    2    4 am   BACKBONE|DICT|INTERRES
     7    4    5 1    
     8    4   70 1    
     9    5    6 1    
    10    5   65 1    
    11    5   71 1    
    12    6    7 1    
    13    6   72 1    
    14    6   73 1    
    15    7    8 1    
    16    8    9 1    
    17    8   74 1    
    18    8   75 1    
    19    9   10 ar   
    20    9   14 ar   
    21   10   11 ar   
    22   10   76 1    
    23   11   12 ar   
    24   11   48 1    
    25   12   13 ar   
    26   12   77 1    
    27   13   14 ar   
    28   13   15 1    
    29   14   78 1    
    30   15   16 1    
    31   15   79 1    
    32   15   80 1    
    33   16   17 1    
    34   17   18 1    
    35   17   81 1    
    36   17   82 1    
    37   18   19 1    
    38   18   22 1    
    39   18   83 1    
    40   19   20 am   BACKBONE|DICT|INTERRES
    41   19   21 2    
    42   20   84 1    
    43   20   85 1    
    44   22   23 am   BACKBONE|DICT|INTERRES
    45   22   86 1    
    46   23   24 2    
    47   23   25 1    
    48   25   26 1    
    49   25   27 1    
    50   25   87 1    
    51   26   88 1    
    52   26   89 1    
    53   26   90 1    
    54   27   28 am   BACKBONE|DICT|INTERRES
    55   27   91 1    
    56   28   29 2    
    57   28   30 1    
    58   30   31 1    
    59   30   32 1    
    60   30   92 1    
    61   31   93 1    
    62   31   94 1    
    63   31   95 1    
    64   32   33 am   BACKBONE|DICT|INTERRES
    65   32   96 1    
    66   33   34 2    
    67   33   35 1    
    68   35   36 1    
    69   35   37 1    
    70   35   97 1    
    71   36   98 1    
    72   36   99 1    
    73   36  100 1    
    74   37   38 am   BACKBONE|DICT|INTERRES
    75   37  101 1    
    76   38   39 2    
    77   38   40 1    
    78   40   41 1    
    79   40   42 1    
    80   40  102 1    
    81   41  103 1    
    82   41  104 1    
    83   41  105 1    
    84   42   43 am   BACKBONE|DICT|INTERRES
    85   42  106 1    
    86   43   44 2    
    87   43   45 1    
    88   45   46 1    
    89   45   49 1    
    90   45  107 1    
    91   46   47 1    
    92   46  108 1    
    93   46  109 1    
    94   47   48 1    
    95   48  110 1    
    96   48  111 1    
    97   49   50 am   BACKBONE|DICT|INTERRES
    98   49  112 1    
    99   50   51 2    
   100   50   52 1    
   101   52   53 1    
   102   52   54 1    
   103   52  113 1    
   104   53  114 1    
   105   53  115 1    
   106   53  116 1    
   107   54   55 am   BACKBONE|DICT|INTERRES
   108   54  117 1    
   109   55   56 2    
   110   55   57 1    
   111   57   58 1    
   112   57   59 1    
   113   57  118 1    
   114   58  119 1    
   115   58  120 1    
   116   58  121 1    
   117   59   60 am   BACKBONE|DICT|INTERRES
   118   59  122 1    
   119   60   61 2    
   120   60   62 1    
   121   62   63 1    
   122   62   64 1    
   123   62  123 1    
   124   63  124 1    
   125   63  125 1    
   126   63  126 1    
   127   64   65 am   BACKBONE|DICT|INTERRES
   128   64  127 1    
   129   65   66 2    
@<TRIPOS>SUBSTRUCTURE
     1 UNK         1 GROUP             0       ****    0 ROOT    
