@<TRIPOS>MOLECULE
3R135
127   129    1
SMALL
USER_CHARGES


@<TRIPOS>ATOM
      1 CA        -83.8227   25.0011  -75.6184 C.3       0 UNK        -0.1998 
      2 C         -82.7738   26.0820  -75.4096 C.2       0 UNK         0.4909 
      3 O         -82.1442   26.5213  -76.3723 O.2       0 UNK        -0.5240 
      4 N         -82.5839   26.5189  -74.1576 N.am      1 UNK        -0.4739 
      5 CA        -81.6529   27.5886  -73.7827 C.3       1 UNK         0.0864 
      6 C6        -81.8693   28.0467  -72.3192 C.3       11 UNK        -0.0881 
      7 S7        -81.4112   29.7981  -72.0813 S.3       11 UNK        -0.2682 
      8 C8        -80.4116   29.7370  -70.5613 C.3       11 UNK         0.0289 
      9 C9        -79.0311   29.1420  -70.7979 C.ar      11 UNK        -0.0687 
     10 C10       -78.7462   27.8357  -70.3916 C.ar      11 UNK        -0.0823 
     11 C11       -77.4699   27.2966  -70.5756 C.ar      11 UNK        -0.0830 
     12 C12       -76.4748   28.0709  -71.1800 C.ar      11 UNK        -0.1021 
     13 C13       -76.7449   29.3832  -71.5814 C.ar      11 UNK        -0.0753 
     14 C14       -78.0251   29.9124  -71.3889 C.ar      11 UNK        -0.0933 
     15 C15       -75.6531   30.2307  -72.2162 C.3       11 UNK         0.0166 
     16 S16       -74.4325   30.7602  -70.9777 S.3       11 UNK        -0.2615 
     17 C17       -73.5056   32.0452  -71.8910 C.3       11 UNK        -0.0865 
     18 CA        -72.3165   31.5294  -72.7518 C.3       10 UNK         0.0862 
     19 C         -71.2624   30.7149  -71.9548 C.2       10 UNK         0.5551 
     20 N         -70.5627   31.3504  -71.0247 N.am      10 UNK        -0.7319 
     21 O         -71.0752   29.5174  -72.1660 O.2       10 UNK        -0.5018 
     22 N         -72.7613   30.7981  -73.9415 N.am      10 UNK        -0.4509 
     23 C         -73.2135   31.3496  -75.0723 C.2       10 UNK         0.4899 
     24 O         -73.3730   32.5630  -75.2113 O.2       10 UNK        -0.4839 
     25 CA        -73.5782   30.4140  -76.2460 C.3       9 UNK         0.0222 
     26 CB        -72.9635   30.9025  -77.5749 C.3       9 UNK        -0.1966 
     27 N         -73.2909   28.9860  -76.0315 N.am      9 UNK        -0.4218 
     28 C         -72.0906   28.4009  -75.8914 C.2       9 UNK         0.5020 
     29 O         -71.0207   29.0101  -75.8731 O.2       9 UNK        -0.5274 
     30 CA        -72.0819   26.8716  -75.7274 C.3       8 UNK         0.0270 
     31 CB        -72.1230   26.4983  -74.2366 C.3       8 UNK        -0.1976 
     32 N         -73.1696   26.1853  -76.4345 N.am      8 UNK        -0.4313 
     33 C         -73.3192   26.1590  -77.7694 C.2       8 UNK         0.5041 
     34 O         -72.5712   26.7523  -78.5490 O.2       8 UNK        -0.5577 
     35 CA        -74.4925   25.3235  -78.3243 C.3       7 UNK         0.0284 
     36 CB        -74.3521   24.9959  -79.8261 C.3       7 UNK        -0.1958 
     37 N         -74.7476   24.1066  -77.5441 N.am      7 UNK        -0.4454 
     38 C         -73.8851   23.1068  -77.3047 C.2       7 UNK         0.5089 
     39 O         -72.7721   23.0247  -77.8269 O.2       7 UNK        -0.5125 
     40 CA        -74.3273   22.0192  -76.3020 C.3       6 UNK         0.0408 
     41 CB        -73.1304   21.4407  -75.5184 C.3       6 UNK        -0.1791 
     42 N         -75.3848   22.4241  -75.3644 N.am      6 UNK        -0.4762 
     43 C         -75.3811   23.4479  -74.4961 C.2       6 UNK         0.5007 
     44 O         -74.4829   24.2894  -74.4447 O.2       6 UNK        -0.5032 
     45 CA        -76.5964   23.5443  -73.5445 C.3       5 UNK         0.0783 
     46 C46       -76.4756   24.7174  -72.5418 C.3       11 UNK        -0.0857 
     47 S47       -77.7607   24.6294  -71.2536 S.3       11 UNK        -0.2512 
     48 C48       -77.1666   25.8891  -70.0864 C.3       11 UNK         0.0225 
     49 N         -77.8555   23.6040  -74.2952 N.am      5 UNK        -0.4615 
     50 C         -78.4591   22.5669  -74.8886 C.2       4 UNK         0.5053 
     51 O         -78.0468   21.4085  -74.8195 O.2       4 UNK        -0.5105 
     52 CA        -79.6879   22.8791  -75.7548 C.3       4 UNK         0.0263 
     53 CB        -80.9705   22.8443  -74.9111 C.3       4 UNK        -0.1981 
     54 N         -79.5658   24.1657  -76.4482 N.am      4 UNK        -0.4224 
     55 C         -78.6954   24.4022  -77.4428 C.2       3 UNK         0.4895 
     56 O         -77.9530   23.5465  -77.9248 O.2       3 UNK        -0.5091 
     57 CA        -78.6074   25.8450  -77.9631 C.3       3 UNK         0.0250 
     58 CB        -79.7155   26.1277  -78.9893 C.3       3 UNK        -0.1996 
     59 N         -78.6635   26.8288  -76.8807 N.am      3 UNK        -0.4254 
     60 C         -77.6925   27.0192  -75.9737 C.2       2 UNK         0.5004 
     61 O         -76.6095   26.4353  -75.9935 O.2       2 UNK        -0.5226 
     62 CA        -77.9748   28.0250  -74.8440 C.3       2 UNK         0.0269 
     63 CB        -77.3947   29.3994  -75.2047 C.3       2 UNK        -0.1926 
     64 N         -79.3942   28.1781  -74.5172 N.am      2 UNK        -0.4687 
     65 C         -80.1852   27.1996  -74.0585 C.2       1 UNK         0.5165 
     66 O         -79.8054   26.0394  -73.8791 O.2       1 UNK        -0.5079 
     67 H67       -84.7849   25.4552  -75.8534 H         1 UNK         0.0900 
     68 H68       -83.9415   24.3807  -74.7303 H         1 UNK         0.0900 
     69 H69       -83.5436   24.3546  -76.4498 H         1 UNK         0.0900 
     70 H70       -83.1018   26.0972  -73.4002 H         1 UNK         0.2959 
     71 H71       -81.9001   28.4258  -74.4402 H         1 UNK         0.1079 
     72 H72       -82.9245   27.9691  -72.0520 H         1 UNK         0.0837 
     73 H73       -81.3404   27.4000  -71.6171 H         1 UNK         0.0837 
     74 H74       -80.3018   30.7517  -70.1758 H         1 UNK         0.0685 
     75 H75       -80.9508   29.1796  -69.7936 H         1 UNK         0.0685 
     76 H76       -79.5144   27.2372  -69.9213 H         1 UNK         0.1434 
     77 H77       -75.4834   27.6621  -71.3213 H         1 UNK         0.1329 
     78 H78       -78.2411   30.9273  -71.6938 H         1 UNK         0.1335 
     79 H79       -76.0835   31.1081  -72.7011 H         1 UNK         0.0680 
     80 H80       -75.1533   29.6548  -72.9956 H         1 UNK         0.0680 
     81 H81       -73.1336   32.7587  -71.1542 H         1 UNK         0.1032 
     82 H82       -74.1971   32.6192  -72.5093 H         1 UNK         0.1032 
     83 H83       -71.7749   32.4049  -73.1162 H         1 UNK         0.0461 
     84 H84       -70.7039   32.3314  -70.8413 H         1 UNK         0.3453 
     85 H85       -69.8764   30.8364  -70.4945 H         1 UNK         0.3453 
     86 H86       -72.5860   29.8031  -73.9072 H         1 UNK         0.2984 
     87 H87       -74.6595   30.4883  -76.3552 H         1 UNK         0.0554 
     88 H88       -73.2454   30.2543  -78.4048 H         1 UNK         0.0847 
     89 H89       -71.8745   30.9359  -77.5312 H         1 UNK         0.0847 
     90 H90       -73.3069   31.9081  -77.8207 H         1 UNK         0.0847 
     91 H91       -74.0957   28.3745  -76.0175 H         1 UNK         0.3141 
     92 H92       -71.1403   26.5070  -76.1431 H         1 UNK         0.0743 
     93 H93       -73.0714   26.7769  -73.7752 H         1 UNK         0.0784 
     94 H94       -71.9846   25.4264  -74.0940 H         1 UNK         0.0784 
     95 H95       -71.3291   27.0020  -73.6827 H         1 UNK         0.0784 
     96 H96       -73.8094   25.6388  -75.8633 H         1 UNK         0.3213 
     97 H97       -75.3737   25.9528  -78.2148 H         1 UNK         0.0855 
     98 H98       -74.2982   25.9081  -80.4215 H         1 UNK         0.0814 
     99 H99       -75.2070   24.4246  -80.1877 H         1 UNK         0.0814 
    100 H100      -73.4499   24.4200  -80.0334 H         1 UNK         0.0814 
    101 H101      -75.6388   24.0750  -77.0654 H         1 UNK         0.3105 
    102 H102      -74.7514   21.2136  -76.9029 H         1 UNK         0.0547 
    103 H103      -72.3935   20.9995  -76.1906 H         1 UNK         0.0837 
    104 H104      -72.6210   22.2107  -74.9377 H         1 UNK         0.0837 
    105 H105      -73.4462   20.6558  -74.8314 H         1 UNK         0.0837 
    106 H106      -76.2057   21.8241  -75.3466 H         1 UNK         0.3020 
    107 H107      -76.5904   22.6196  -72.9625 H         1 UNK         0.1245 
    108 H108      -76.5452   25.6760  -73.0572 H         1 UNK         0.0781 
    109 H109      -75.5028   24.7000  -72.0464 H         1 UNK         0.0781 
    110 H110      -76.0977   25.7594  -69.9095 H         1 UNK         0.0836 
    111 H111      -77.6517   25.7288  -69.1224 H         1 UNK         0.0836 
    112 H112      -78.2924   24.5159  -74.3598 H         1 UNK         0.3022 
    113 H113      -79.7615   22.0941  -76.5106 H         1 UNK         0.0747 
    114 H114      -81.8548   22.9091  -75.5426 H         1 UNK         0.0793 
    115 H115      -81.0456   21.9092  -74.3542 H         1 UNK         0.0793 
    116 H116      -81.0052   23.6575  -74.1857 H         1 UNK         0.0793 
    117 H117      -80.1129   24.9367  -76.0882 H         1 UNK         0.3047 
    118 H118      -77.6497   25.9571  -78.4729 H         1 UNK         0.0822 
    119 H119      -79.6263   27.1321  -79.4035 H         1 UNK         0.0807 
    120 H120      -80.7101   26.0316  -78.5535 H         1 UNK         0.0807 
    121 H121      -79.6586   25.4279  -79.8243 H         1 UNK         0.0807 
    122 H122      -79.5263   27.3447  -76.7760 H         1 UNK         0.2946 
    123 H123      -77.4731   27.6604  -73.9459 H         1 UNK         0.1144 
    124 H124      -77.6067   30.1397  -74.4341 H         1 UNK         0.0793 
    125 H125      -77.7944   29.7754  -76.1475 H         1 UNK         0.0793 
    126 H126      -76.3128   29.3368  -75.3057 H         1 UNK         0.0793 
    127 H127      -79.7810   29.1058  -74.6172 H         1 UNK         0.2896 
@<TRIPOS>BOND
     1    1    2 1    
     2    1   67 1    
     3    1   68 1    
     4    1   69 1    
     5    2    3 2    
     6    2    4 am   BACKBONE|DICT|INTERRES
     7    4    5 1    
     8    4   70 1    
     9    5    6 1    
    10    5   65 1    
    11    5   71 1    
    12    6    7 1    
    13    6   72 1    
    14    6   73 1    
    15    7    8 1    
    16    8    9 1    
    17    8   74 1    
    18    8   75 1    
    19    9   10 ar   
    20    9   14 ar   
    21   10   11 ar   
    22   10   76 1    
    23   11   12 ar   
    24   11   48 1    
    25   12   13 ar   
    26   12   77 1    
    27   13   14 ar   
    28   13   15 1    
    29   14   78 1    
    30   15   16 1    
    31   15   79 1    
    32   15   80 1    
    33   16   17 1    
    34   17   18 1    
    35   17   81 1    
    36   17   82 1    
    37   18   19 1    
    38   18   22 1    
    39   18   83 1    
    40   19   20 am   BACKBONE|DICT|INTERRES
    41   19   21 2    
    42   20   84 1    
    43   20   85 1    
    44   22   23 am   BACKBONE|DICT|INTERRES
    45   22   86 1    
    46   23   24 2    
    47   23   25 1    
    48   25   26 1    
    49   25   27 1    
    50   25   87 1    
    51   26   88 1    
    52   26   89 1    
    53   26   90 1    
    54   27   28 am   BACKBONE|DICT|INTERRES
    55   27   91 1    
    56   28   29 2    
    57   28   30 1    
    58   30   31 1    
    59   30   32 1    
    60   30   92 1    
    61   31   93 1    
    62   31   94 1    
    63   31   95 1    
    64   32   33 am   BACKBONE|DICT|INTERRES
    65   32   96 1    
    66   33   34 2    
    67   33   35 1    
    68   35   36 1    
    69   35   37 1    
    70   35   97 1    
    71   36   98 1    
    72   36   99 1    
    73   36  100 1    
    74   37   38 am   BACKBONE|DICT|INTERRES
    75   37  101 1    
    76   38   39 2    
    77   38   40 1    
    78   40   41 1    
    79   40   42 1    
    80   40  102 1    
    81   41  103 1    
    82   41  104 1    
    83   41  105 1    
    84   42   43 am   BACKBONE|DICT|INTERRES
    85   42  106 1    
    86   43   44 2    
    87   43   45 1    
    88   45   46 1    
    89   45   49 1    
    90   45  107 1    
    91   46   47 1    
    92   46  108 1    
    93   46  109 1    
    94   47   48 1    
    95   48  110 1    
    96   48  111 1    
    97   49   50 am   BACKBONE|DICT|INTERRES
    98   49  112 1    
    99   50   51 2    
   100   50   52 1    
   101   52   53 1    
   102   52   54 1    
   103   52  113 1    
   104   53  114 1    
   105   53  115 1    
   106   53  116 1    
   107   54   55 am   BACKBONE|DICT|INTERRES
   108   54  117 1    
   109   55   56 2    
   110   55   57 1    
   111   57   58 1    
   112   57   59 1    
   113   57  118 1    
   114   58  119 1    
   115   58  120 1    
   116   58  121 1    
   117   59   60 am   BACKBONE|DICT|INTERRES
   118   59  122 1    
   119   60   61 2    
   120   60   62 1    
   121   62   63 1    
   122   62   64 1    
   123   62  123 1    
   124   63  124 1    
   125   63  125 1    
   126   63  126 1    
   127   64   65 am   BACKBONE|DICT|INTERRES
   128   64  127 1    
   129   65   66 2    
@<TRIPOS>SUBSTRUCTURE
     1 UNK         1 GROUP             0       ****    0 ROOT    
