@<TRIPOS>MOLECULE
3R135
127   129    1
SMALL
USER_CHARGES


@<TRIPOS>ATOM
      1 CA        -81.0031   25.5579  -69.7348 C.3       0 UNK        -0.1998 
      2 C         -81.7067   26.5627  -70.6345 C.2       0 UNK         0.4909 
      3 O         -82.9367   26.5945  -70.6748 O.2       0 UNK        -0.5240 
      4 N         -80.9349   27.3801  -71.3615 N.am      1 UNK        -0.4739 
      5 CA        -81.4382   28.3901  -72.3025 C.3       1 UNK         0.0864 
      6 C6        -80.3858   29.4971  -72.5536 C.3       11 UNK        -0.0881 
      7 S7        -80.0863   30.5772  -71.1076 S.3       11 UNK        -0.2682 
      8 C8        -78.8776   29.6725  -70.0733 C.3       11 UNK         0.0289 
      9 C9        -77.7643   28.9836  -70.8547 C.ar      11 UNK        -0.0687 
     10 C10       -77.4629   27.6435  -70.5943 C.ar      11 UNK        -0.0823 
     11 C11       -76.4806   26.9791  -71.3326 C.ar      11 UNK        -0.0830 
     12 C12       -75.7834   27.6685  -72.3292 C.ar      11 UNK        -0.1021 
     13 C13       -76.0682   29.0114  -72.5928 C.ar      11 UNK        -0.0753 
     14 C14       -77.0431   29.6690  -71.8383 C.ar      11 UNK        -0.0933 
     15 C15       -75.3241   29.7593  -73.6871 C.3       11 UNK         0.0166 
     16 S16       -76.3176   29.9462  -75.2001 S.3       11 UNK        -0.2615 
     17 C17       -76.1878   28.2890  -75.9604 C.3       11 UNK        -0.0865 
     18 CA        -75.2660   28.2114  -77.2085 C.3       10 UNK         0.0862 
     19 C         -75.8424   28.9743  -78.4353 C.2       10 UNK         0.5551 
     20 N         -76.6303   28.3043  -79.2634 N.am      10 UNK        -0.7319 
     21 O         -75.5938   30.1621  -78.6342 O.2       10 UNK        -0.5018 
     22 N         -73.8778   28.5945  -76.9079 N.am      10 UNK        -0.4509 
     23 C         -72.8357   28.3036  -77.6984 C.2       10 UNK         0.4899 
     24 O         -72.9258   27.6078  -78.7101 O.2       10 UNK        -0.4839 
     25 CA        -71.4466   28.8324  -77.3001 C.3       9 UNK         0.0222 
     26 CB        -71.1511   30.1927  -77.9630 C.3       9 UNK        -0.1966 
     27 N         -71.1909   28.8443  -75.8533 N.am      9 UNK        -0.4218 
     28 C         -71.6664   29.6758  -74.9170 C.2       9 UNK         0.5020 
     29 O         -72.4481   30.5986  -75.1454 O.2       9 UNK        -0.5274 
     30 CA        -71.2548   29.3472  -73.4762 C.3       8 UNK         0.0270 
     31 CB        -71.7583   30.3652  -72.4349 C.3       8 UNK        -0.1976 
     32 N         -71.7618   28.0148  -73.1580 N.am      8 UNK        -0.4313 
     33 C         -71.0640   27.0377  -72.5725 C.2       8 UNK         0.5041 
     34 O         -69.9278   27.1807  -72.1185 O.2       8 UNK        -0.5577 
     35 CA        -71.7376   25.6543  -72.4939 C.3       7 UNK         0.0284 
     36 CB        -72.4122   25.4788  -71.1240 C.3       7 UNK        -0.1958 
     37 N         -72.7084   25.3495  -73.5590 N.am      7 UNK        -0.4454 
     38 C         -72.4721   25.3724  -74.8780 C.2       7 UNK         0.5089 
     39 O         -71.4274   25.8015  -75.3682 O.2       7 UNK        -0.5125 
     40 CA        -73.5555   24.8312  -75.8369 C.3       6 UNK         0.0408 
     41 CB        -73.1025   23.4854  -76.4343 C.3       6 UNK        -0.1791 
     42 N         -74.9401   24.7151  -75.3427 N.am      6 UNK        -0.4762 
     43 C         -75.4216   23.9607  -74.3406 C.2       6 UNK         0.5007 
     44 O         -74.7116   23.4036  -73.5043 O.2       6 UNK        -0.5032 
     45 CA        -76.9540   23.7571  -74.2931 C.3       5 UNK         0.0783 
     46 C46       -77.6615   24.7883  -73.3819 C.3       11 UNK        -0.0857 
     47 S47       -77.5382   24.4179  -71.6004 S.3       11 UNK        -0.2512 
     48 C48       -76.1846   25.5113  -71.0617 C.3       11 UNK         0.0225 
     49 N         -77.5583   23.7362  -75.6332 N.am      5 UNK        -0.4615 
     50 C         -77.3288   22.7884  -76.5572 C.2       4 UNK         0.5053 
     51 O         -76.5799   21.8304  -76.3644 O.2       4 UNK        -0.5105 
     52 CA        -78.0544   22.8896  -77.9143 C.3       4 UNK         0.0263 
     53 CB        -78.9210   21.6419  -78.1598 C.3       4 UNK        -0.1981 
     54 N         -78.9011   24.0752  -78.0518 N.am      4 UNK        -0.4224 
     55 C         -78.4739   25.3059  -78.3633 C.2       3 UNK         0.4895 
     56 O         -77.2976   25.5936  -78.5852 O.2       3 UNK        -0.5091 
     57 CA        -79.5426   26.4152  -78.3874 C.3       3 UNK         0.0250 
     58 CB        -80.1376   26.5608  -79.7966 C.3       3 UNK        -0.1996 
     59 N         -80.6215   26.2047  -77.4135 N.am      3 UNK        -0.4254 
     60 C         -80.4284   26.1783  -76.0884 C.2       2 UNK         0.5004 
     61 O         -79.3223   26.3245  -75.5636 O.2       2 UNK        -0.5226 
     62 CA        -81.6461   25.8605  -75.2103 C.3       2 UNK         0.0269 
     63 CB        -81.7613   24.3423  -74.9924 C.3       2 UNK        -0.1926 
     64 N         -81.4972   26.5154  -73.9120 N.am      2 UNK        -0.4687 
     65 C         -81.8781   27.7726  -73.6496 C.2       1 UNK         0.5165 
     66 O         -82.5376   28.4551  -74.4357 O.2       1 UNK        -0.5079 
     67 H67       -79.9230   25.5682  -69.8756 H         1 UNK         0.0900 
     68 H68       -81.2127   25.7797  -68.6888 H         1 UNK         0.0900 
     69 H69       -81.3589   24.5502  -69.9479 H         1 UNK         0.0900 
     70 H70       -79.9293   27.3161  -71.2939 H         1 UNK         0.2959 
     71 H71       -82.3273   28.8558  -71.8710 H         1 UNK         0.1079 
     72 H72       -80.7253   30.1645  -73.3486 H         1 UNK         0.0837 
     73 H73       -79.4547   29.0682  -72.9252 H         1 UNK         0.0837 
     74 H74       -79.4260   28.9492  -69.4680 H         1 UNK         0.0685 
     75 H75       -78.4278   30.3746  -69.3703 H         1 UNK         0.0685 
     76 H76       -77.9990   27.1070  -69.8236 H         1 UNK         0.1434 
     77 H77       -75.0288   27.1551  -72.9072 H         1 UNK         0.1329 
     78 H78       -77.2673   30.7070  -72.0432 H         1 UNK         0.1335 
     79 H79       -74.3947   29.2481  -73.9291 H         1 UNK         0.0680 
     80 H80       -75.0480   30.7513  -73.3270 H         1 UNK         0.0680 
     81 H81       -77.1959   27.9600  -76.2205 H         1 UNK         0.1032 
     82 H82       -75.8455   27.5752  -75.2123 H         1 UNK         0.1032 
     83 H83       -75.2335   27.1565  -77.4886 H         1 UNK         0.0461 
     84 H84       -77.0144   28.7744  -80.0672 H         1 UNK         0.3453 
     85 H85       -76.8137   27.3162  -79.1117 H         1 UNK         0.3453 
     86 H86       -73.7400   29.2711  -76.1666 H         1 UNK         0.2984 
     87 H87       -70.7248   28.1194  -77.7020 H         1 UNK         0.0554 
     88 H88       -71.2049   30.1118  -79.0494 H         1 UNK         0.0847 
     89 H89       -70.1518   30.5491  -77.7136 H         1 UNK         0.0847 
     90 H90       -71.8671   30.9592  -77.6651 H         1 UNK         0.0847 
     91 H91       -70.6468   28.0546  -75.5262 H         1 UNK         0.3141 
     92 H92       -70.1627   29.3542  -73.4558 H         1 UNK         0.0743 
     93 H93       -71.4304   31.3750  -72.6849 H         1 UNK         0.0784 
     94 H94       -71.3691   30.1346  -71.4432 H         1 UNK         0.0784 
     95 H95       -72.8450   30.3803  -72.3674 H         1 UNK         0.0784 
     96 H96       -72.6711   27.7815  -73.5271 H         1 UNK         0.3213 
     97 H97       -70.9423   24.9106  -72.5766 H         1 UNK         0.0855 
     98 H98       -73.1928   26.2226  -70.9614 H         1 UNK         0.0814 
     99 H99       -71.6868   25.5937  -70.3173 H         1 UNK         0.0814 
    100 H100      -72.8550   24.4881  -71.0184 H         1 UNK         0.0814 
    101 H101      -73.5471   24.8485  -73.2797 H         1 UNK         0.3105 
    102 H102      -73.6032   25.5448  -76.6593 H         1 UNK         0.0547 
    103 H103      -73.7961   23.1377  -77.2001 H         1 UNK         0.0837 
    104 H104      -73.0295   22.7084  -75.6725 H         1 UNK         0.0837 
    105 H105      -72.1217   23.5730  -76.9039 H         1 UNK         0.0837 
    106 H106      -75.6339   25.1245  -75.9528 H         1 UNK         0.3020 
    107 H107      -77.1189   22.7642  -73.8676 H         1 UNK         0.1245 
    108 H108      -78.7316   24.7717  -73.5872 H         1 UNK         0.0781 
    109 H109      -77.3463   25.8068  -73.6089 H         1 UNK         0.0781 
    110 H110      -75.2658   25.2016  -71.5567 H         1 UNK         0.0836 
    111 H111      -76.0165   25.3677  -69.9935 H         1 UNK         0.0836 
    112 H112      -78.1810   24.5043  -75.8539 H         1 UNK         0.3022 
    113 H113      -77.2821   22.9237  -78.6859 H         1 UNK         0.0747 
    114 H114      -79.3965   21.6752  -79.1403 H         1 UNK         0.0793 
    115 H115      -78.3196   20.7322  -78.1276 H         1 UNK         0.0793 
    116 H116      -79.7051   21.5403  -77.4083 H         1 UNK         0.0793 
    117 H117      -79.8876   23.9455  -77.8816 H         1 UNK         0.3047 
    118 H118      -79.0475   27.3532  -78.1275 H         1 UNK         0.0822 
    119 H119      -80.8287   27.4021  -79.8506 H         1 UNK         0.0807 
    120 H120      -80.6749   25.6631  -80.1053 H         1 UNK         0.0807 
    121 H121      -79.3540   26.7412  -80.5340 H         1 UNK         0.0807 
    122 H122      -81.5522   26.0694  -77.7830 H         1 UNK         0.2946 
    123 H123      -82.5520   26.2191  -75.7048 H         1 UNK         0.1144 
    124 H124      -82.6098   24.0991  -74.3525 H         1 UNK         0.0793 
    125 H125      -80.8652   23.9267  -74.5298 H         1 UNK         0.0793 
    126 H126      -81.9120   23.8201  -75.9380 H         1 UNK         0.0793 
    127 H127      -80.9211   26.0451  -73.2302 H         1 UNK         0.2896 
@<TRIPOS>BOND
     1    1    2 1    
     2    1   67 1    
     3    1   68 1    
     4    1   69 1    
     5    2    3 2    
     6    2    4 am   BACKBONE|DICT|INTERRES
     7    4    5 1    
     8    4   70 1    
     9    5    6 1    
    10    5   65 1    
    11    5   71 1    
    12    6    7 1    
    13    6   72 1    
    14    6   73 1    
    15    7    8 1    
    16    8    9 1    
    17    8   74 1    
    18    8   75 1    
    19    9   10 ar   
    20    9   14 ar   
    21   10   11 ar   
    22   10   76 1    
    23   11   12 ar   
    24   11   48 1    
    25   12   13 ar   
    26   12   77 1    
    27   13   14 ar   
    28   13   15 1    
    29   14   78 1    
    30   15   16 1    
    31   15   79 1    
    32   15   80 1    
    33   16   17 1    
    34   17   18 1    
    35   17   81 1    
    36   17   82 1    
    37   18   19 1    
    38   18   22 1    
    39   18   83 1    
    40   19   20 am   BACKBONE|DICT|INTERRES
    41   19   21 2    
    42   20   84 1    
    43   20   85 1    
    44   22   23 am   BACKBONE|DICT|INTERRES
    45   22   86 1    
    46   23   24 2    
    47   23   25 1    
    48   25   26 1    
    49   25   27 1    
    50   25   87 1    
    51   26   88 1    
    52   26   89 1    
    53   26   90 1    
    54   27   28 am   BACKBONE|DICT|INTERRES
    55   27   91 1    
    56   28   29 2    
    57   28   30 1    
    58   30   31 1    
    59   30   32 1    
    60   30   92 1    
    61   31   93 1    
    62   31   94 1    
    63   31   95 1    
    64   32   33 am   BACKBONE|DICT|INTERRES
    65   32   96 1    
    66   33   34 2    
    67   33   35 1    
    68   35   36 1    
    69   35   37 1    
    70   35   97 1    
    71   36   98 1    
    72   36   99 1    
    73   36  100 1    
    74   37   38 am   BACKBONE|DICT|INTERRES
    75   37  101 1    
    76   38   39 2    
    77   38   40 1    
    78   40   41 1    
    79   40   42 1    
    80   40  102 1    
    81   41  103 1    
    82   41  104 1    
    83   41  105 1    
    84   42   43 am   BACKBONE|DICT|INTERRES
    85   42  106 1    
    86   43   44 2    
    87   43   45 1    
    88   45   46 1    
    89   45   49 1    
    90   45  107 1    
    91   46   47 1    
    92   46  108 1    
    93   46  109 1    
    94   47   48 1    
    95   48  110 1    
    96   48  111 1    
    97   49   50 am   BACKBONE|DICT|INTERRES
    98   49  112 1    
    99   50   51 2    
   100   50   52 1    
   101   52   53 1    
   102   52   54 1    
   103   52  113 1    
   104   53  114 1    
   105   53  115 1    
   106   53  116 1    
   107   54   55 am   BACKBONE|DICT|INTERRES
   108   54  117 1    
   109   55   56 2    
   110   55   57 1    
   111   57   58 1    
   112   57   59 1    
   113   57  118 1    
   114   58  119 1    
   115   58  120 1    
   116   58  121 1    
   117   59   60 am   BACKBONE|DICT|INTERRES
   118   59  122 1    
   119   60   61 2    
   120   60   62 1    
   121   62   63 1    
   122   62   64 1    
   123   62  123 1    
   124   63  124 1    
   125   63  125 1    
   126   63  126 1    
   127   64   65 am   BACKBONE|DICT|INTERRES
   128   64  127 1    
   129   65   66 2    
@<TRIPOS>SUBSTRUCTURE
     1 UNK         1 GROUP             0       ****    0 ROOT    
