@<TRIPOS>MOLECULE
3R135
127   129    1
SMALL
USER_CHARGES


@<TRIPOS>ATOM
      1 CA        -85.0972   27.7887  -73.5140 C.3       0 UNK        -0.1998 
      2 C         -83.8870   26.9415  -73.1505 C.2       0 UNK         0.4909 
      3 O         -84.0487   25.7776  -72.7830 O.2       0 UNK        -0.5240 
      4 N         -82.6813   27.5204  -73.2599 N.am      1 UNK        -0.4739 
      5 CA        -81.3796   26.9048  -72.9409 C.3       1 UNK         0.0864 
      6 C6        -81.2137   26.5344  -71.4388 C.3       11 UNK        -0.0881 
      7 S7        -81.5443   27.9441  -70.3250 S.3       11 UNK        -0.2682 
      8 C8        -79.8916   28.2926  -69.6327 C.3       11 UNK         0.0289 
      9 C9        -78.8678   28.7974  -70.6484 C.ar      11 UNK        -0.0687 
     10 C10       -79.2218   29.6905  -71.6673 C.ar      11 UNK        -0.0823 
     11 C11       -78.2659   30.1659  -72.5715 C.ar      11 UNK        -0.0830 
     12 C12       -76.9325   29.7680  -72.4235 C.ar      11 UNK        -0.1021 
     13 C13       -76.5638   28.8754  -71.4133 C.ar      11 UNK        -0.0753 
     14 C14       -77.5345   28.3940  -70.5315 C.ar      11 UNK        -0.0933 
     15 C15       -75.1227   28.4080  -71.2943 C.3       11 UNK         0.0166 
     16 S16       -74.0627   29.6471  -70.4971 S.3       11 UNK        -0.2615 
     17 C17       -72.4572   28.7752  -70.5211 C.3       11 UNK        -0.0865 
     18 CA        -71.5535   29.1928  -71.7135 C.3       10 UNK         0.0862 
     19 C         -70.0938   28.6779  -71.5260 C.2       10 UNK         0.5551 
     20 N         -69.5161   27.9199  -72.4511 N.am      10 UNK        -0.7319 
     21 O         -69.4649   28.9827  -70.5154 O.2       10 UNK        -0.5018 
     22 N         -72.1581   28.8360  -73.0082 N.am      10 UNK        -0.4509 
     23 C         -71.8947   29.4471  -74.1694 C.2       10 UNK         0.4899 
     24 O         -71.1690   30.4378  -74.2716 O.2       10 UNK        -0.4839 
     25 CA        -72.5503   28.8362  -75.4245 C.3       9 UNK         0.0222 
     26 CB        -71.9037   29.3241  -76.7374 C.3       9 UNK        -0.1966 
     27 N         -72.6133   27.3686  -75.4062 N.am      9 UNK        -0.4218 
     28 C         -71.5967   26.5034  -75.2776 C.2       9 UNK         0.5020 
     29 O         -70.4290   26.8361  -75.0700 O.2       9 UNK        -0.5274 
     30 CA        -71.9405   25.0090  -75.4068 C.3       8 UNK         0.0270 
     31 CB        -72.4303   24.4243  -74.0724 C.3       8 UNK        -0.1976 
     32 N         -72.9054   24.7343  -76.4814 N.am      8 UNK        -0.4313 
     33 C         -72.5752   24.7834  -77.7817 C.2       8 UNK         0.5041 
     34 O         -71.4559   25.0956  -78.1911 O.2       8 UNK        -0.5577 
     35 CA        -73.6514   24.4059  -78.8049 C.3       7 UNK         0.0284 
     36 CB        -73.9537   22.8967  -78.7660 C.3       7 UNK        -0.1958 
     37 N         -74.8817   25.1752  -78.6057 N.am      7 UNK        -0.4454 
     38 C         -75.2755   26.1680  -79.4161 C.2       7 UNK         0.5089 
     39 O         -74.6103   26.5837  -80.3659 O.2       7 UNK        -0.5125 
     40 CA        -76.6593   26.7871  -79.1646 C.3       6 UNK         0.0408 
     41 CB        -77.7598   25.9202  -79.7966 C.3       6 UNK        -0.1791 
     42 N         -76.9683   27.0174  -77.7540 N.am      6 UNK        -0.4762 
     43 C         -76.4314   27.9975  -77.0136 C.2       6 UNK         0.5007 
     44 O         -75.5321   28.7388  -77.4095 O.2       6 UNK        -0.5032 
     45 CA        -77.0025   28.1857  -75.5958 C.3       5 UNK         0.0783 
     46 C46       -78.3034   29.0334  -75.5924 C.3       11 UNK        -0.0857 
     47 S47       -77.9359   30.7996  -75.3141 S.3       11 UNK        -0.2512 
     48 C48       -78.6952   31.1251  -73.6818 C.3       11 UNK         0.0225 
     49 N         -77.1872   26.8986  -74.9285 N.am      5 UNK        -0.4615 
     50 C         -76.2049   26.2589  -74.2848 C.2       4 UNK         0.5053 
     51 O         -75.0566   26.6855  -74.2025 O.2       4 UNK        -0.5105 
     52 CA        -76.5413   24.8904  -73.6758 C.3       4 UNK         0.0263 
     53 CB        -77.2173   25.0608  -72.3068 C.3       4 UNK        -0.1981 
     54 N         -77.3775   24.0871  -74.5693 N.am      4 UNK        -0.4224 
     55 C         -76.9686   23.6731  -75.7791 C.2       3 UNK         0.4895 
     56 O         -75.8352   23.8784  -76.2178 O.2       3 UNK        -0.5091 
     57 CA        -77.9921   22.9581  -76.6783 C.3       3 UNK         0.0250 
     58 CB        -77.8549   21.4349  -76.5334 C.3       3 UNK        -0.1996 
     59 N         -79.3871   23.3475  -76.4444 N.am      3 UNK        -0.4254 
     60 C         -79.8759   24.5938  -76.5242 C.2       2 UNK         0.5004 
     61 O         -79.1899   25.5805  -76.7975 O.2       2 UNK        -0.5226 
     62 CA        -81.3674   24.8003  -76.2024 C.3       2 UNK         0.0269 
     63 CB        -82.1391   23.5007  -75.8763 C.3       2 UNK        -0.1926 
     64 N         -81.5469   25.7826  -75.1264 N.am      2 UNK        -0.4687 
     65 C         -81.0309   25.7303  -73.8867 C.2       1 UNK         0.5165 
     66 O         -80.3018   24.8167  -73.4940 O.2       1 UNK        -0.5079 
     67 H67       -85.6494   27.3238  -74.3303 H         1 UNK         0.0900 
     68 H68       -85.7643   27.8751  -72.6568 H         1 UNK         0.0900 
     69 H69       -84.8142   28.7942  -73.8251 H         1 UNK         0.0900 
     70 H70       -82.6340   28.4831  -73.5638 H         1 UNK         0.2959 
     71 H71       -80.6306   27.6655  -73.1630 H         1 UNK         0.1079 
     72 H72       -81.8888   25.7210  -71.1683 H         1 UNK         0.0837 
     73 H73       -80.2070   26.1615  -71.2434 H         1 UNK         0.0837 
     74 H74       -79.9979   29.0471  -68.8525 H         1 UNK         0.0685 
     75 H75       -79.5289   27.3897  -69.1386 H         1 UNK         0.0685 
     76 H76       -80.2481   30.0194  -71.7547 H         1 UNK         0.1434 
     77 H77       -76.1778   30.1456  -73.0991 H         1 UNK         0.1329 
     78 H78       -77.2475   27.7087  -69.7455 H         1 UNK         0.1335 
     79 H79       -74.7301   28.2113  -72.2882 H         1 UNK         0.0680 
     80 H80       -75.0680   27.4679  -70.7434 H         1 UNK         0.0680 
     81 H81       -71.9658   29.0058  -69.5738 H         1 UNK         0.1032 
     82 H82       -72.6139   27.6950  -70.5152 H         1 UNK         0.1032 
     83 H83       -71.4739   30.2813  -71.6815 H         1 UNK         0.0461 
     84 H84       -69.9938   27.6733  -73.3113 H         1 UNK         0.3453 
     85 H85       -68.5701   27.6069  -72.3030 H         1 UNK         0.3453 
     86 H86       -72.7507   28.0194  -73.0211 H         1 UNK         0.2984 
     87 H87       -73.5848   29.1818  -75.4184 H         1 UNK         0.0554 
     88 H88       -71.9557   30.4102  -76.8221 H         1 UNK         0.0847 
     89 H89       -72.4160   28.9093  -77.6059 H         1 UNK         0.0847 
     90 H90       -70.8526   29.0401  -76.7993 H         1 UNK         0.0847 
     91 H91       -73.5520   26.9806  -75.4148 H         1 UNK         0.3141 
     92 H92       -71.0125   24.4899  -75.6575 H         1 UNK         0.0743 
     93 H93       -71.6707   24.5430  -73.2986 H         1 UNK         0.0784 
     94 H94       -73.3313   24.9144  -73.7123 H         1 UNK         0.0784 
     95 H95       -72.6398   23.3580  -74.1589 H         1 UNK         0.0784 
     96 H96       -73.8474   24.4584  -76.2212 H         1 UNK         0.3213 
     97 H97       -73.2369   24.6134  -79.7940 H         1 UNK         0.0855 
     98 H98       -74.3121   22.5657  -77.7920 H         1 UNK         0.0814 
     99 H99       -73.0561   22.3187  -78.9896 H         1 UNK         0.0814 
    100 H100      -74.7050   22.6252  -79.5076 H         1 UNK         0.0814 
    101 H101      -75.4598   24.9073  -77.8150 H         1 UNK         0.3105 
    102 H102      -76.6786   27.7561  -79.6685 H         1 UNK         0.0547 
    103 H103      -78.7392   26.3887  -79.6983 H         1 UNK         0.0837 
    104 H104      -77.5769   25.7722  -80.8618 H         1 UNK         0.0837 
    105 H105      -77.8145   24.9344  -79.3360 H         1 UNK         0.0837 
    106 H106      -77.7273   26.4639  -77.3575 H         1 UNK         0.3020 
    107 H107      -76.2392   28.7308  -75.0362 H         1 UNK         0.1245 
    108 H108      -78.9805   28.6956  -74.8071 H         1 UNK         0.0781 
    109 H109      -78.8688   28.9251  -76.5204 H         1 UNK         0.0781 
    110 H110      -79.7791   31.1018  -73.8056 H         1 UNK         0.0836 
    111 H111      -78.4445   32.1421  -73.3778 H         1 UNK         0.0836 
    112 H112      -78.0778   26.4376  -75.0572 H         1 UNK         0.3022 
    113 H113      -75.6080   24.3456  -73.5245 H         1 UNK         0.0747 
    114 H114      -77.5276   24.1029  -71.8893 H         1 UNK         0.0793 
    115 H115      -76.5313   25.5190  -71.5937 H         1 UNK         0.0793 
    116 H116      -78.0944   25.7049  -72.3643 H         1 UNK         0.0793 
    117 H117      -78.3367   23.9265  -74.2857 H         1 UNK         0.3047 
    118 H118      -77.7496   23.2212  -77.7089 H         1 UNK         0.0822 
    119 H119      -76.8298   21.1154  -76.7281 H         1 UNK         0.0807 
    120 H120      -78.4948   20.9085  -77.2419 H         1 UNK         0.0807 
    121 H121      -78.1159   21.0991  -75.5290 H         1 UNK         0.0807 
    122 H122      -80.0231   22.6071  -76.1857 H         1 UNK         0.2946 
    123 H123      -81.8088   25.2330  -77.1018 H         1 UNK         0.1144 
    124 H124      -83.1933   23.7119  -75.6955 H         1 UNK         0.0793 
    125 H125      -81.7524   23.0004  -74.9874 H         1 UNK         0.0793 
    126 H126      -82.0975   22.7938  -76.7061 H         1 UNK         0.0793 
    127 H127      -82.1129   26.5866  -75.3586 H         1 UNK         0.2896 
@<TRIPOS>BOND
     1    1    2 1    
     2    1   67 1    
     3    1   68 1    
     4    1   69 1    
     5    2    3 2    
     6    2    4 am   BACKBONE|DICT|INTERRES
     7    4    5 1    
     8    4   70 1    
     9    5    6 1    
    10    5   65 1    
    11    5   71 1    
    12    6    7 1    
    13    6   72 1    
    14    6   73 1    
    15    7    8 1    
    16    8    9 1    
    17    8   74 1    
    18    8   75 1    
    19    9   10 ar   
    20    9   14 ar   
    21   10   11 ar   
    22   10   76 1    
    23   11   12 ar   
    24   11   48 1    
    25   12   13 ar   
    26   12   77 1    
    27   13   14 ar   
    28   13   15 1    
    29   14   78 1    
    30   15   16 1    
    31   15   79 1    
    32   15   80 1    
    33   16   17 1    
    34   17   18 1    
    35   17   81 1    
    36   17   82 1    
    37   18   19 1    
    38   18   22 1    
    39   18   83 1    
    40   19   20 am   BACKBONE|DICT|INTERRES
    41   19   21 2    
    42   20   84 1    
    43   20   85 1    
    44   22   23 am   BACKBONE|DICT|INTERRES
    45   22   86 1    
    46   23   24 2    
    47   23   25 1    
    48   25   26 1    
    49   25   27 1    
    50   25   87 1    
    51   26   88 1    
    52   26   89 1    
    53   26   90 1    
    54   27   28 am   BACKBONE|DICT|INTERRES
    55   27   91 1    
    56   28   29 2    
    57   28   30 1    
    58   30   31 1    
    59   30   32 1    
    60   30   92 1    
    61   31   93 1    
    62   31   94 1    
    63   31   95 1    
    64   32   33 am   BACKBONE|DICT|INTERRES
    65   32   96 1    
    66   33   34 2    
    67   33   35 1    
    68   35   36 1    
    69   35   37 1    
    70   35   97 1    
    71   36   98 1    
    72   36   99 1    
    73   36  100 1    
    74   37   38 am   BACKBONE|DICT|INTERRES
    75   37  101 1    
    76   38   39 2    
    77   38   40 1    
    78   40   41 1    
    79   40   42 1    
    80   40  102 1    
    81   41  103 1    
    82   41  104 1    
    83   41  105 1    
    84   42   43 am   BACKBONE|DICT|INTERRES
    85   42  106 1    
    86   43   44 2    
    87   43   45 1    
    88   45   46 1    
    89   45   49 1    
    90   45  107 1    
    91   46   47 1    
    92   46  108 1    
    93   46  109 1    
    94   47   48 1    
    95   48  110 1    
    96   48  111 1    
    97   49   50 am   BACKBONE|DICT|INTERRES
    98   49  112 1    
    99   50   51 2    
   100   50   52 1    
   101   52   53 1    
   102   52   54 1    
   103   52  113 1    
   104   53  114 1    
   105   53  115 1    
   106   53  116 1    
   107   54   55 am   BACKBONE|DICT|INTERRES
   108   54  117 1    
   109   55   56 2    
   110   55   57 1    
   111   57   58 1    
   112   57   59 1    
   113   57  118 1    
   114   58  119 1    
   115   58  120 1    
   116   58  121 1    
   117   59   60 am   BACKBONE|DICT|INTERRES
   118   59  122 1    
   119   60   61 2    
   120   60   62 1    
   121   62   63 1    
   122   62   64 1    
   123   62  123 1    
   124   63  124 1    
   125   63  125 1    
   126   63  126 1    
   127   64   65 am   BACKBONE|DICT|INTERRES
   128   64  127 1    
   129   65   66 2    
@<TRIPOS>SUBSTRUCTURE
     1 UNK         1 GROUP             0       ****    0 ROOT    
