@<TRIPOS>MOLECULE
3R135
127   129    1
SMALL
USER_CHARGES


@<TRIPOS>ATOM
      1 CA        -84.5394   30.3547  -74.7962 C.3       0 UNK        -0.1998 
      2 C         -83.2760   29.5147  -74.6824 C.2       0 UNK         0.4909 
      3 O         -82.6478   29.2133  -75.6979 O.2       0 UNK        -0.5240 
      4 N         -82.8953   29.1429  -73.4539 N.am      1 UNK        -0.4739 
      5 CA        -81.7329   28.2997  -73.1508 C.3       1 UNK         0.0864 
      6 C6        -81.3818   28.3248  -71.6413 C.3       11 UNK        -0.0881 
      7 S7        -81.0396   30.0172  -71.0413 S.3       11 UNK        -0.2682 
      8 C8        -79.8593   29.7274  -69.6834 C.3       11 UNK         0.0289 
      9 C9        -78.5061   29.2500  -70.1899 C.ar      11 UNK        -0.0687 
     10 C10       -78.0946   27.9326  -69.9629 C.ar      11 UNK        -0.0823 
     11 C11       -76.8694   27.4798  -70.4591 C.ar      11 UNK        -0.0830 
     12 C12       -76.0344   28.3655  -71.1458 C.ar      11 UNK        -0.1021 
     13 C13       -76.4478   29.6741  -71.4048 C.ar      11 UNK        -0.0753 
     14 C14       -77.6777   30.1179  -70.9102 C.ar      11 UNK        -0.0933 
     15 C15       -75.5899   30.5709  -72.2818 C.3       11 UNK         0.0166 
     16 S16       -75.7174   30.0379  -74.0186 S.3       11 UNK        -0.2615 
     17 C17       -74.6861   31.2273  -74.9534 C.3       11 UNK        -0.0865 
     18 CA        -73.2323   31.4939  -74.4501 C.3       10 UNK         0.0862 
     19 C         -73.1272   32.6328  -73.4004 C.2       10 UNK         0.5551 
     20 N         -73.5482   33.8417  -73.7459 N.am      10 UNK        -0.7319 
     21 O         -72.6635   32.4351  -72.2779 O.2       10 UNK        -0.5018 
     22 N         -72.5271   30.2912  -73.9951 N.am      10 UNK        -0.4509 
     23 C         -72.1299   29.2619  -74.7481 C.2       10 UNK         0.4899 
     24 O         -72.3119   29.1939  -75.9641 O.2       10 UNK        -0.4839 
     25 CA        -71.3571   28.1440  -74.0271 C.3       9 UNK         0.0222 
     26 CB        -71.6712   28.0388  -72.5176 C.3       9 UNK        -0.1966 
     27 N         -71.6213   26.8529  -74.6598 N.am      9 UNK        -0.4218 
     28 C         -70.7236   25.8704  -74.7974 C.2       9 UNK         0.5020 
     29 O         -69.5350   25.9816  -74.4905 O.2       9 UNK        -0.5274 
     30 CA        -71.2264   24.5137  -75.3170 C.3       8 UNK         0.0270 
     31 CB        -71.7239   23.6532  -74.1437 C.3       8 UNK        -0.1976 
     32 N         -72.2792   24.6063  -76.3307 N.am      8 UNK        -0.4313 
     33 C         -72.0701   24.9540  -77.6081 C.2       8 UNK         0.5041 
     34 O         -70.9745   25.2981  -78.0542 O.2       8 UNK        -0.5577 
     35 CA        -73.2770   24.8758  -78.5585 C.3       7 UNK         0.0284 
     36 CB        -73.5794   23.4178  -78.9425 C.3       7 UNK        -0.1958 
     37 N         -74.4709   25.4913  -77.9818 N.am      7 UNK        -0.4454 
     38 C         -74.6707   26.8135  -77.9012 C.2       7 UNK         0.5089 
     39 O         -73.9284   27.6485  -78.4178 O.2       7 UNK        -0.5125 
     40 CA        -75.9068   27.2915  -77.1169 C.3       6 UNK         0.0408 
     41 CB        -77.1011   27.4927  -78.0620 C.3       6 UNK        -0.1791 
     42 N         -76.3005   26.3944  -76.0270 N.am      6 UNK        -0.4762 
     43 C         -75.5459   26.1161  -74.9541 C.2       6 UNK         0.5007 
     44 O         -74.4216   26.5772  -74.7649 O.2       6 UNK        -0.5032 
     45 CA        -76.1243   25.1115  -73.9405 C.3       5 UNK         0.0783 
     46 C46       -77.2338   25.7702  -73.0890 C.3       11 UNK        -0.0857 
     47 S47       -77.4594   24.9550  -71.4706 S.3       11 UNK        -0.2512 
     48 C48       -76.4832   26.0122  -70.3415 C.3       11 UNK         0.0225 
     49 N         -76.5995   23.8946  -74.6030 N.am      5 UNK        -0.4615 
     50 C         -75.8400   23.0573  -75.3210 C.2       4 UNK         0.5053 
     51 O         -74.6254   23.1832  -75.4667 O.2       4 UNK        -0.5105 
     52 CA        -76.5755   21.9189  -76.0449 C.3       4 UNK         0.0263 
     53 CB        -76.8623   20.7565  -75.0813 C.3       4 UNK        -0.1981 
     54 N         -77.8252   22.3719  -76.6623 N.am      4 UNK        -0.4224 
     55 C         -77.8937   23.2509  -77.6736 C.2       3 UNK         0.4895 
     56 O         -76.9087   23.7335  -78.2316 O.2       3 UNK        -0.5091 
     57 CA        -79.3005   23.7000  -78.1034 C.3       3 UNK         0.0250 
     58 CB        -79.9217   22.6849  -79.0763 C.3       3 UNK        -0.1996 
     59 N         -80.2075   23.9222  -76.9706 N.am      3 UNK        -0.4254 
     60 C         -80.0234   24.8625  -76.0340 C.2       2 UNK         0.5004 
     61 O         -79.0610   25.6343  -76.0183 O.2       2 UNK        -0.5226 
     62 CA        -81.0586   24.9305  -74.9065 C.3       2 UNK         0.0269 
     63 CB        -80.7980   23.8415  -73.8480 C.3       2 UNK        -0.1926 
     64 N         -80.9885   26.2557  -74.2943 N.am      2 UNK        -0.4687 
     65 C         -81.9831   26.8546  -73.6319 C.2       1 UNK         0.5165 
     66 O         -83.0646   26.3118  -73.3890 O.2       1 UNK        -0.5079 
     67 H67       -84.9808   30.5613  -73.8213 H         1 UNK         0.0900 
     68 H68       -84.3148   31.3074  -75.2751 H         1 UNK         0.0900 
     69 H69       -85.2818   29.8351  -75.4015 H         1 UNK         0.0900 
     70 H70       -83.4512   29.4146  -72.6559 H         1 UNK         0.2959 
     71 H71       -80.8807   28.7024  -73.7036 H         1 UNK         0.1079 
     72 H72       -80.5106   27.6949  -71.4541 H         1 UNK         0.0837 
     73 H73       -82.1952   27.9063  -71.0453 H         1 UNK         0.0837 
     74 H74       -79.7236   30.6584  -69.1312 H         1 UNK         0.0685 
     75 H75       -80.2895   29.0138  -68.9789 H         1 UNK         0.0685 
     76 H76       -78.7445   27.2452  -69.4385 H         1 UNK         0.1434 
     77 H77       -75.0972   28.0148  -71.5558 H         1 UNK         0.1329 
     78 H78       -78.0092   31.1269  -71.1142 H         1 UNK         0.1335 
     79 H79       -75.8937   31.6151  -72.1922 H         1 UNK         0.0680 
     80 H80       -74.5550   30.5054  -71.9463 H         1 UNK         0.0680 
     81 H81       -74.6217   30.8294  -75.9673 H         1 UNK         0.1032 
     82 H82       -75.2478   32.1565  -75.0600 H         1 UNK         0.1032 
     83 H83       -72.6593   31.8644  -75.3025 H         1 UNK         0.0461 
     84 H84       -73.9117   34.0288  -74.6672 H         1 UNK         0.3453 
     85 H85       -73.4830   34.5907  -73.0742 H         1 UNK         0.3453 
     86 H86       -72.3018   30.3029  -73.0094 H         1 UNK         0.2984 
     87 H87       -70.3004   28.3936  -74.1411 H         1 UNK         0.0554 
     88 H88       -71.1394   27.2036  -72.0613 H         1 UNK         0.0847 
     89 H89       -72.7368   27.8860  -72.3418 H         1 UNK         0.0847 
     90 H90       -71.3651   28.9345  -71.9763 H         1 UNK         0.0847 
     91 H91       -72.5900   26.6966  -74.9379 H         1 UNK         0.3141 
     92 H92       -70.3731   24.0009  -75.7666 H         1 UNK         0.0743 
     93 H93       -72.5978   24.0958  -73.6632 H         1 UNK         0.0784 
     94 H94       -71.9962   22.6508  -74.4745 H         1 UNK         0.0784 
     95 H95       -70.9511   23.5442  -73.3815 H         1 UNK         0.0784 
     96 H96       -73.2046   24.2863  -76.0523 H         1 UNK         0.3213 
     97 H97       -73.0171   25.4141  -79.4728 H         1 UNK         0.0855 
     98 H98       -73.8667   22.8192  -78.0777 H         1 UNK         0.0814 
     99 H99       -72.7060   22.9440  -79.3923 H         1 UNK         0.0814 
    100 H100      -74.3901   23.3611  -79.6692 H         1 UNK         0.0814 
    101 H101      -75.1815   24.8713  -77.6100 H         1 UNK         0.3105 
    102 H102      -75.6567   28.2567  -76.6716 H         1 UNK         0.0547 
    103 H103      -76.8504   28.1844  -78.8673 H         1 UNK         0.0837 
    104 H104      -77.4118   26.5536  -78.5211 H         1 UNK         0.0837 
    105 H105      -77.9598   27.9068  -77.5333 H         1 UNK         0.0837 
    106 H106      -77.2347   25.9927  -76.0848 H         1 UNK         0.3020 
    107 H107      -75.2980   24.8293  -73.2837 H         1 UNK         0.1245 
    108 H108      -78.1887   25.7351  -73.6094 H         1 UNK         0.0781 
    109 H109      -77.0501   26.8334  -72.9545 H         1 UNK         0.0781 
    110 H110      -75.4219   25.8739  -70.5540 H         1 UNK         0.0836 
    111 H111      -76.6359   25.6752  -69.3152 H         1 UNK         0.0836 
    112 H112      -77.5915   23.7235  -74.5585 H         1 UNK         0.3022 
    113 H113      -75.9206   21.5524  -76.8386 H         1 UNK         0.0747 
    114 H114      -77.3134   19.9118  -75.6025 H         1 UNK         0.0793 
    115 H115      -75.9405   20.3963  -74.6219 H         1 UNK         0.0793 
    116 H116      -77.5345   21.0517  -74.2746 H         1 UNK         0.0793 
    117 H117      -78.6866   22.0190  -76.2723 H         1 UNK         0.3047 
    118 H118      -79.1910   24.6506  -78.6302 H         1 UNK         0.0822 
    119 H119      -80.8766   23.0403  -79.4641 H         1 UNK         0.0807 
    120 H120      -80.0903   21.7171  -78.6024 H         1 UNK         0.0807 
    121 H121      -79.2685   22.5182  -79.9342 H         1 UNK         0.0807 
    122 H122      -81.0200   23.3243  -76.9147 H         1 UNK         0.2946 
    123 H123      -82.0500   24.7902  -75.3442 H         1 UNK         0.1144 
    124 H124      -81.5488   23.8695  -73.0582 H         1 UNK         0.0793 
    125 H125      -79.8210   23.9556  -73.3784 H         1 UNK         0.0793 
    126 H126      -80.8356   22.8445  -74.2884 H         1 UNK         0.0793 
    127 H127      -80.1414   26.7644  -74.5174 H         1 UNK         0.2896 
@<TRIPOS>BOND
     1    1    2 1    
     2    1   67 1    
     3    1   68 1    
     4    1   69 1    
     5    2    3 2    
     6    2    4 am   BACKBONE|DICT|INTERRES
     7    4    5 1    
     8    4   70 1    
     9    5    6 1    
    10    5   65 1    
    11    5   71 1    
    12    6    7 1    
    13    6   72 1    
    14    6   73 1    
    15    7    8 1    
    16    8    9 1    
    17    8   74 1    
    18    8   75 1    
    19    9   10 ar   
    20    9   14 ar   
    21   10   11 ar   
    22   10   76 1    
    23   11   12 ar   
    24   11   48 1    
    25   12   13 ar   
    26   12   77 1    
    27   13   14 ar   
    28   13   15 1    
    29   14   78 1    
    30   15   16 1    
    31   15   79 1    
    32   15   80 1    
    33   16   17 1    
    34   17   18 1    
    35   17   81 1    
    36   17   82 1    
    37   18   19 1    
    38   18   22 1    
    39   18   83 1    
    40   19   20 am   BACKBONE|DICT|INTERRES
    41   19   21 2    
    42   20   84 1    
    43   20   85 1    
    44   22   23 am   BACKBONE|DICT|INTERRES
    45   22   86 1    
    46   23   24 2    
    47   23   25 1    
    48   25   26 1    
    49   25   27 1    
    50   25   87 1    
    51   26   88 1    
    52   26   89 1    
    53   26   90 1    
    54   27   28 am   BACKBONE|DICT|INTERRES
    55   27   91 1    
    56   28   29 2    
    57   28   30 1    
    58   30   31 1    
    59   30   32 1    
    60   30   92 1    
    61   31   93 1    
    62   31   94 1    
    63   31   95 1    
    64   32   33 am   BACKBONE|DICT|INTERRES
    65   32   96 1    
    66   33   34 2    
    67   33   35 1    
    68   35   36 1    
    69   35   37 1    
    70   35   97 1    
    71   36   98 1    
    72   36   99 1    
    73   36  100 1    
    74   37   38 am   BACKBONE|DICT|INTERRES
    75   37  101 1    
    76   38   39 2    
    77   38   40 1    
    78   40   41 1    
    79   40   42 1    
    80   40  102 1    
    81   41  103 1    
    82   41  104 1    
    83   41  105 1    
    84   42   43 am   BACKBONE|DICT|INTERRES
    85   42  106 1    
    86   43   44 2    
    87   43   45 1    
    88   45   46 1    
    89   45   49 1    
    90   45  107 1    
    91   46   47 1    
    92   46  108 1    
    93   46  109 1    
    94   47   48 1    
    95   48  110 1    
    96   48  111 1    
    97   49   50 am   BACKBONE|DICT|INTERRES
    98   49  112 1    
    99   50   51 2    
   100   50   52 1    
   101   52   53 1    
   102   52   54 1    
   103   52  113 1    
   104   53  114 1    
   105   53  115 1    
   106   53  116 1    
   107   54   55 am   BACKBONE|DICT|INTERRES
   108   54  117 1    
   109   55   56 2    
   110   55   57 1    
   111   57   58 1    
   112   57   59 1    
   113   57  118 1    
   114   58  119 1    
   115   58  120 1    
   116   58  121 1    
   117   59   60 am   BACKBONE|DICT|INTERRES
   118   59  122 1    
   119   60   61 2    
   120   60   62 1    
   121   62   63 1    
   122   62   64 1    
   123   62  123 1    
   124   63  124 1    
   125   63  125 1    
   126   63  126 1    
   127   64   65 am   BACKBONE|DICT|INTERRES
   128   64  127 1    
   129   65   66 2    
@<TRIPOS>SUBSTRUCTURE
     1 UNK         1 GROUP             0       ****    0 ROOT    
