@<TRIPOS>MOLECULE
3R135
127   129    1
SMALL
USER_CHARGES


@<TRIPOS>ATOM
      1 CA        -84.2237   23.9532  -72.1722 C.3       0 UNK        -0.1998 
      2 C         -82.8495   24.5302  -72.4760 C.2       0 UNK         0.4909 
      3 O         -81.9708   23.7999  -72.9365 O.2       0 UNK        -0.5240 
      4 N         -82.6664   25.8383  -72.2350 N.am      1 UNK        -0.4739 
      5 CA        -81.4164   26.5946  -72.4190 C.3       1 UNK         0.0864 
      6 C6        -80.3254   26.2145  -71.3767 C.3       11 UNK        -0.0881 
      7 S7        -80.6057   26.9406  -69.7274 S.3       11 UNK        -0.2682 
      8 C8        -80.1076   28.6942  -69.9257 C.3       11 UNK         0.0289 
      9 C9        -78.9059   28.9158  -70.8418 C.ar      11 UNK        -0.0687 
     10 C10       -79.0762   29.5619  -72.0709 C.ar      11 UNK        -0.0823 
     11 C11       -77.9938   29.7548  -72.9360 C.ar      11 UNK        -0.0830 
     12 C12       -76.7289   29.2975  -72.5616 C.ar      11 UNK        -0.1021 
     13 C13       -76.5398   28.6666  -71.3284 C.ar      11 UNK        -0.0753 
     14 C14       -77.6294   28.4797  -70.4698 C.ar      11 UNK        -0.0933 
     15 C15       -75.1505   28.1970  -70.9342 C.3       11 UNK         0.0166 
     16 S16       -74.1957   29.5707  -70.2228 S.3       11 UNK        -0.2615 
     17 C17       -72.4838   28.9918  -70.4670 C.3       11 UNK        -0.0865 
     18 CA        -71.7928   29.7132  -71.6538 C.3       10 UNK         0.0862 
     19 C         -70.2785   29.3799  -71.6915 C.2       10 UNK         0.5551 
     20 N         -69.4214   30.3207  -71.3206 N.am      10 UNK        -0.7319 
     21 O         -69.8834   28.2599  -72.0079 O.2       10 UNK        -0.5018 
     22 N         -72.4344   29.3842  -72.9336 N.am      10 UNK        -0.4509 
     23 C         -72.3102   30.0967  -74.0606 C.2       10 UNK         0.4899 
     24 O         -71.7292   31.1814  -74.1249 O.2       10 UNK        -0.4839 
     25 CA        -72.9476   29.4798  -75.3242 C.3       9 UNK         0.0222 
     26 CB        -72.5081   30.1825  -76.6267 C.3       9 UNK        -0.1966 
     27 N         -72.7349   28.0274  -75.4027 N.am      9 UNK        -0.4218 
     28 C         -71.5549   27.3904  -75.4638 C.2       9 UNK         0.5020 
     29 O         -70.4681   27.9538  -75.5977 O.2       9 UNK        -0.5274 
     30 CA        -71.5839   25.8650  -75.3204 C.3       8 UNK         0.0270 
     31 CB        -71.8236   25.4664  -73.8524 C.3       8 UNK        -0.1976 
     32 N         -72.6064   25.2405  -76.1645 N.am      8 UNK        -0.4313 
     33 C         -72.3504   24.2793  -77.0610 C.2       8 UNK         0.5041 
     34 O         -71.2159   23.8981  -77.3554 O.2       8 UNK        -0.5577 
     35 CA        -73.5506   23.5770  -77.7136 C.3       7 UNK         0.0284 
     36 CB        -74.0336   22.4223  -76.8208 C.3       7 UNK        -0.1958 
     37 N         -74.6767   24.4588  -78.0298 N.am      7 UNK        -0.4454 
     38 C         -74.6873   25.3111  -79.0646 C.2       7 UNK         0.5089 
     39 O         -73.7103   25.5326  -79.7808 O.2       7 UNK        -0.5125 
     40 CA        -76.0224   26.0060  -79.3813 C.3       6 UNK         0.0408 
     41 CB        -77.0189   25.0190  -80.0113 C.3       6 UNK        -0.1791 
     42 N         -76.6266   26.6208  -78.2026 N.am      6 UNK        -0.4762 
     43 C         -76.1920   27.7538  -77.6321 C.2       6 UNK         0.5007 
     44 O         -75.2662   28.4345  -78.0714 O.2       6 UNK        -0.5032 
     45 CA        -76.9131   28.1902  -76.3400 C.3       5 UNK         0.0783 
     46 C46       -78.1853   28.9926  -76.7253 C.3       11 UNK        -0.0857 
     47 S47       -79.2785   29.5363  -75.3722 S.3       11 UNK        -0.2512 
     48 C48       -78.1949   30.4813  -74.2589 C.3       11 UNK         0.0225 
     49 N         -77.1613   27.0452  -75.4523 N.am      5 UNK        -0.4615 
     50 C         -76.1975   26.2447  -74.9667 C.2       4 UNK         0.5053 
     51 O         -74.9941   26.4482  -75.1295 O.2       4 UNK        -0.5105 
     52 CA        -76.6245   24.9766  -74.2174 C.3       4 UNK         0.0263 
     53 CB        -76.7495   25.2578  -72.7149 C.3       4 UNK        -0.1981 
     54 N         -77.8729   24.4205  -74.7411 N.am      4 UNK        -0.4224 
     55 C         -77.9703   23.7577  -75.9024 C.2       3 UNK         0.4895 
     56 O         -77.0138   23.5404  -76.6449 O.2       3 UNK        -0.5091 
     57 CA        -79.3719   23.2902  -76.3282 C.3       3 UNK         0.0250 
     58 CB        -79.7663   22.0042  -75.5852 C.3       3 UNK        -0.1996 
     59 N         -80.3946   24.3138  -76.1138 N.am      3 UNK        -0.4254 
     60 C         -80.4418   25.4816  -76.7710 C.2       2 UNK         0.5004 
     61 O         -79.6707   25.7869  -77.6820 O.2       2 UNK        -0.5226 
     62 CA        -81.4981   26.5009  -76.3027 C.3       2 UNK         0.0269 
     63 CB        -82.8044   26.3167  -77.0907 C.3       2 UNK        -0.1926 
     64 N         -81.7940   26.4780  -74.8615 N.am      2 UNK        -0.4687 
     65 C         -80.8874   26.5523  -73.8730 C.2       1 UNK         0.5165 
     66 O         -79.6754   26.5744  -74.0816 O.2       1 UNK        -0.5079 
     67 H67       -84.9050   24.7062  -71.7766 H         1 UNK         0.0900 
     68 H68       -84.1388   23.1534  -71.4371 H         1 UNK         0.0900 
     69 H69       -84.6647   23.5382  -73.0780 H         1 UNK         0.0900 
     70 H70       -83.4375   26.3758  -71.8627 H         1 UNK         0.2959 
     71 H71       -81.6703   27.6441  -72.2655 H         1 UNK         0.1079 
     72 H72       -80.2559   25.1312  -71.2711 H         1 UNK         0.0837 
     73 H73       -79.3316   26.5222  -71.6856 H         1 UNK         0.0837 
     74 H74       -80.9697   29.2532  -70.2925 H         1 UNK         0.0685 
     75 H75       -79.8837   29.1057  -68.9406 H         1 UNK         0.0685 
     76 H76       -80.0561   29.9117  -72.3653 H         1 UNK         0.1434 
     77 H77       -75.8843   29.4457  -73.2198 H         1 UNK         0.1329 
     78 H78       -77.4887   27.9871  -69.5175 H         1 UNK         0.1335 
     79 H79       -75.2070   27.3802  -70.2129 H         1 UNK         0.0680 
     80 H80       -74.6413   27.8000  -71.8133 H         1 UNK         0.0680 
     81 H81       -72.4632   27.9080  -70.5976 H         1 UNK         0.1032 
     82 H82       -71.9430   29.1901  -69.5394 H         1 UNK         0.1032 
     83 H83       -71.9015   30.7885  -71.4946 H         1 UNK         0.0461 
     84 H84       -68.4348   30.1137  -71.3232 H         1 UNK         0.3453 
     85 H85       -69.7399   31.2396  -71.0542 H         1 UNK         0.3453 
     86 H86       -72.8895   28.4870  -72.9828 H         1 UNK         0.2984 
     87 H87       -74.0233   29.6236  -75.2220 H         1 UNK         0.0554 
     88 H88       -72.9610   29.7178  -77.5020 H         1 UNK         0.0847 
     89 H89       -71.4261   30.1576  -76.7579 H         1 UNK         0.0847 
     90 H90       -72.8095   31.2305  -76.6246 H         1 UNK         0.0847 
     91 H91       -73.5753   27.4585  -75.2995 H         1 UNK         0.3141 
     92 H92       -70.5892   25.5089  -75.5969 H         1 UNK         0.0743 
     93 H93       -72.8146   25.7602  -73.5046 H         1 UNK         0.0784 
     94 H94       -71.7309   24.3886  -73.7183 H         1 UNK         0.0784 
     95 H95       -71.0919   25.9380  -73.1945 H         1 UNK         0.0784 
     96 H96       -73.5692   25.5187  -75.9956 H         1 UNK         0.3213 
     97 H97       -73.1977   23.1405  -78.6509 H         1 UNK         0.0855 
     98 H98       -74.4186   22.7832  -75.8665 H         1 UNK         0.0814 
     99 H99       -73.2199   21.7290  -76.6030 H         1 UNK         0.0814 
    100 H100      -74.8246   21.8498  -77.3057 H         1 UNK         0.0814 
    101 H101      -75.5399   24.2958  -77.5147 H         1 UNK         0.3105 
    102 H102      -75.8250   26.7914  -80.1142 H         1 UNK         0.0547 
    103 H103      -76.5971   24.5536  -80.9030 H         1 UNK         0.0837 
    104 H104      -77.2916   24.2186  -79.3225 H         1 UNK         0.0837 
    105 H105      -77.9374   25.5233  -80.3121 H         1 UNK         0.0837 
    106 H106      -77.4222   26.1451  -77.7923 H         1 UNK         0.3020 
    107 H107      -76.2331   28.8576  -75.8101 H         1 UNK         0.1245 
    108 H108      -77.9034   29.8841  -77.2892 H         1 UNK         0.0781 
    109 H109      -78.8087   28.4039  -77.4011 H         1 UNK         0.0781 
    110 H110      -77.2435   30.7023  -74.7435 H         1 UNK         0.0836 
    111 H111      -78.6604   31.4476  -74.0603 H         1 UNK         0.0836 
    112 H112      -78.1265   26.8680  -75.1854 H         1 UNK         0.3022 
    113 H113      -75.8410   24.2279  -74.3520 H         1 UNK         0.0747 
    114 H114      -77.1802   24.4135  -72.1768 H         1 UNK         0.0793 
    115 H115      -75.7699   25.4574  -72.2795 H         1 UNK         0.0793 
    116 H116      -77.3653   26.1351  -72.5275 H         1 UNK         0.0793 
    117 H117      -78.7217   24.6763  -74.2522 H         1 UNK         0.3047 
    118 H118      -79.3352   23.0697  -77.3974 H         1 UNK         0.0822 
    119 H119      -80.7164   21.6126  -75.9489 H         1 UNK         0.0807 
    120 H120      -79.8624   22.1698  -74.5110 H         1 UNK         0.0807 
    121 H121      -79.0178   21.2239  -75.7308 H         1 UNK         0.0807 
    122 H122      -81.0499   24.1610  -75.3585 H         1 UNK         0.2946 
    123 H123      -81.1009   27.4910  -76.5322 H         1 UNK         0.1144 
    124 H124      -82.6198   26.3476  -78.1657 H         1 UNK         0.0793 
    125 H125      -83.5198   27.1077  -76.8652 H         1 UNK         0.0793 
    126 H126      -83.2783   25.3598  -76.8683 H         1 UNK         0.0793 
    127 H127      -82.7690   26.4410  -74.6014 H         1 UNK         0.2896 
@<TRIPOS>BOND
     1    1    2 1    
     2    1   67 1    
     3    1   68 1    
     4    1   69 1    
     5    2    3 2    
     6    2    4 am   BACKBONE|DICT|INTERRES
     7    4    5 1    
     8    4   70 1    
     9    5    6 1    
    10    5   65 1    
    11    5   71 1    
    12    6    7 1    
    13    6   72 1    
    14    6   73 1    
    15    7    8 1    
    16    8    9 1    
    17    8   74 1    
    18    8   75 1    
    19    9   10 ar   
    20    9   14 ar   
    21   10   11 ar   
    22   10   76 1    
    23   11   12 ar   
    24   11   48 1    
    25   12   13 ar   
    26   12   77 1    
    27   13   14 ar   
    28   13   15 1    
    29   14   78 1    
    30   15   16 1    
    31   15   79 1    
    32   15   80 1    
    33   16   17 1    
    34   17   18 1    
    35   17   81 1    
    36   17   82 1    
    37   18   19 1    
    38   18   22 1    
    39   18   83 1    
    40   19   20 am   BACKBONE|DICT|INTERRES
    41   19   21 2    
    42   20   84 1    
    43   20   85 1    
    44   22   23 am   BACKBONE|DICT|INTERRES
    45   22   86 1    
    46   23   24 2    
    47   23   25 1    
    48   25   26 1    
    49   25   27 1    
    50   25   87 1    
    51   26   88 1    
    52   26   89 1    
    53   26   90 1    
    54   27   28 am   BACKBONE|DICT|INTERRES
    55   27   91 1    
    56   28   29 2    
    57   28   30 1    
    58   30   31 1    
    59   30   32 1    
    60   30   92 1    
    61   31   93 1    
    62   31   94 1    
    63   31   95 1    
    64   32   33 am   BACKBONE|DICT|INTERRES
    65   32   96 1    
    66   33   34 2    
    67   33   35 1    
    68   35   36 1    
    69   35   37 1    
    70   35   97 1    
    71   36   98 1    
    72   36   99 1    
    73   36  100 1    
    74   37   38 am   BACKBONE|DICT|INTERRES
    75   37  101 1    
    76   38   39 2    
    77   38   40 1    
    78   40   41 1    
    79   40   42 1    
    80   40  102 1    
    81   41  103 1    
    82   41  104 1    
    83   41  105 1    
    84   42   43 am   BACKBONE|DICT|INTERRES
    85   42  106 1    
    86   43   44 2    
    87   43   45 1    
    88   45   46 1    
    89   45   49 1    
    90   45  107 1    
    91   46   47 1    
    92   46  108 1    
    93   46  109 1    
    94   47   48 1    
    95   48  110 1    
    96   48  111 1    
    97   49   50 am   BACKBONE|DICT|INTERRES
    98   49  112 1    
    99   50   51 2    
   100   50   52 1    
   101   52   53 1    
   102   52   54 1    
   103   52  113 1    
   104   53  114 1    
   105   53  115 1    
   106   53  116 1    
   107   54   55 am   BACKBONE|DICT|INTERRES
   108   54  117 1    
   109   55   56 2    
   110   55   57 1    
   111   57   58 1    
   112   57   59 1    
   113   57  118 1    
   114   58  119 1    
   115   58  120 1    
   116   58  121 1    
   117   59   60 am   BACKBONE|DICT|INTERRES
   118   59  122 1    
   119   60   61 2    
   120   60   62 1    
   121   62   63 1    
   122   62   64 1    
   123   62  123 1    
   124   63  124 1    
   125   63  125 1    
   126   63  126 1    
   127   64   65 am   BACKBONE|DICT|INTERRES
   128   64  127 1    
   129   65   66 2    
@<TRIPOS>SUBSTRUCTURE
     1 UNK         1 GROUP             0       ****    0 ROOT    
