@<TRIPOS>MOLECULE
3R135
127   129    1
SMALL
USER_CHARGES


@<TRIPOS>ATOM
      1 CA        -80.6280   31.5145  -75.4671 C.3       0 UNK        -0.1998 
      2 C         -80.3601   30.1601  -74.8281 C.2       0 UNK         0.4909 
      3 O         -79.4018   29.4883  -75.2057 O.2       0 UNK        -0.5240 
      4 N         -81.1961   29.7635  -73.8603 N.am      1 UNK        -0.4739 
      5 CA        -81.0994   28.4953  -73.1272 C.3       1 UNK         0.0864 
      6 C6        -82.0463   28.4631  -71.8986 C.3       11 UNK        -0.0881 
      7 S7        -81.8255   29.8816  -70.7728 S.3       11 UNK        -0.2682 
      8 C8        -80.7130   29.1852  -69.5074 C.3       11 UNK         0.0289 
      9 C9        -79.3196   28.8727  -70.0424 C.ar      11 UNK        -0.0687 
     10 C10       -78.7544   27.6080  -69.8373 C.ar      11 UNK        -0.0823 
     11 C11       -77.4586   27.3288  -70.2838 C.ar      11 UNK        -0.0830 
     12 C12       -76.7270   28.3317  -70.9250 C.ar      11 UNK        -0.1021 
     13 C13       -77.3006   29.5755  -71.1972 C.ar      11 UNK        -0.0753 
     14 C14       -78.5882   29.8496  -70.7297 C.ar      11 UNK        -0.0933 
     15 C15       -76.5346   30.6013  -72.0225 C.3       11 UNK         0.0166 
     16 S16       -76.0798   29.9073  -73.6456 S.3       11 UNK        -0.2615 
     17 C17       -75.3532   31.3364  -74.5247 C.3       11 UNK        -0.0865 
     18 CA        -73.8740   31.6893  -74.1670 C.3       10 UNK         0.0862 
     19 C         -73.7624   32.6644  -72.9651 C.2       10 UNK         0.5551 
     20 N         -74.2631   33.8839  -73.1059 N.am      10 UNK        -0.7319 
     21 O         -73.2294   32.3298  -71.9075 O.2       10 UNK        -0.5018 
     22 N         -73.0134   30.5205  -73.9563 N.am      10 UNK        -0.4509 
     23 C         -72.6979   29.5800  -74.8487 C.2       10 UNK         0.4899 
     24 O         -73.0434   29.5995  -76.0321 O.2       10 UNK        -0.4839 
     25 CA        -71.8619   28.4131  -74.3062 C.3       9 UNK         0.0222 
     26 CB        -72.5546   27.7434  -73.0965 C.3       9 UNK        -0.1966 
     27 N         -71.6297   27.4385  -75.3728 N.am      9 UNK        -0.4218 
     28 C         -70.6869   26.4886  -75.3601 C.2       9 UNK         0.5020 
     29 O         -69.8772   26.3574  -74.4394 O.2       9 UNK        -0.5274 
     30 CA        -70.6227   25.5269  -76.5612 C.3       8 UNK         0.0270 
     31 CB        -69.9633   24.1768  -76.2063 C.3       8 UNK        -0.1976 
     32 N         -71.9397   25.2900  -77.1606 N.am      8 UNK        -0.4313 
     33 C         -72.1343   24.9877  -78.4538 C.2       8 UNK         0.5041 
     34 O         -71.2205   24.9205  -79.2780 O.2       8 UNK        -0.5577 
     35 CA        -73.5720   24.6953  -78.9324 C.3       7 UNK         0.0284 
     36 CB        -73.8122   23.1778  -78.9926 C.3       7 UNK        -0.1958 
     37 N         -74.6202   25.3107  -78.1179 N.am      7 UNK        -0.4454 
     38 C         -74.7797   26.6278  -77.9351 C.2       7 UNK         0.5089 
     39 O         -74.1264   27.4820  -78.5340 O.2       7 UNK        -0.5125 
     40 CA        -75.8117   27.0729  -76.8838 C.3       6 UNK         0.0408 
     41 CB        -77.1212   27.4966  -77.5648 C.3       6 UNK        -0.1791 
     42 N         -76.1138   26.0883  -75.8376 N.am      6 UNK        -0.4762 
     43 C         -75.2317   25.5052  -75.0103 C.2       6 UNK         0.5007 
     44 O         -74.0107   25.5810  -75.1363 O.2       6 UNK        -0.5032 
     45 CA        -75.8268   24.6826  -73.8565 C.3       5 UNK         0.0783 
     46 C46       -76.6048   25.6151  -72.8961 C.3       11 UNK        -0.0857 
     47 S47       -77.3040   24.7895  -71.4279 S.3       11 UNK        -0.2512 
     48 C48       -76.8460   25.9458  -70.0883 C.3       11 UNK         0.0225 
     49 N         -76.6373   23.6033  -74.4172 N.am      5 UNK        -0.4615 
     50 C         -76.1258   22.4581  -74.8913 C.2       4 UNK         0.5053 
     51 O         -74.9451   22.1333  -74.7659 O.2       4 UNK        -0.5105 
     52 CA        -77.0776   21.5160  -75.6512 C.3       4 UNK         0.0263 
     53 CB        -77.6474   20.4508  -74.7008 C.3       4 UNK        -0.1981 
     54 N         -78.1833   22.2108  -76.3133 N.am      4 UNK        -0.4224 
     55 C         -78.0557   23.0997  -77.3103 C.2       3 UNK         0.4895 
     56 O         -76.9846   23.3944  -77.8401 O.2       3 UNK        -0.5091 
     57 CA        -79.3426   23.8280  -77.7402 C.3       3 UNK         0.0250 
     58 CB        -80.0738   23.0342  -78.8342 C.3       3 UNK        -0.1996 
     59 N         -80.2585   24.0877  -76.6206 N.am      3 UNK        -0.4254 
     60 C         -79.9464   24.8319  -75.5502 C.2       2 UNK         0.5004 
     61 O         -78.8598   25.3963  -75.4067 O.2       2 UNK        -0.5226 
     62 CA        -80.9735   24.8722  -74.4112 C.3       2 UNK         0.0269 
     63 CB        -80.7484   23.6870  -73.4572 C.3       2 UNK        -0.1926 
     64 N         -80.8514   26.1164  -73.6517 N.am      2 UNK        -0.4687 
     65 C         -81.3853   27.2817  -74.0363 C.2       1 UNK         0.5165 
     66 O         -82.1200   27.4015  -75.0216 O.2       1 UNK        -0.5079 
     67 H67       -79.7612   32.1635  -75.3445 H         1 UNK         0.0900 
     68 H68       -81.4900   32.0120  -75.0231 H         1 UNK         0.0900 
     69 H69       -80.8165   31.3946  -76.5336 H         1 UNK         0.0900 
     70 H70       -81.9701   30.3554  -73.5959 H         1 UNK         0.2959 
     71 H71       -80.0680   28.4052  -72.7789 H         1 UNK         0.1079 
     72 H72       -83.0887   28.4640  -72.2241 H         1 UNK         0.0837 
     73 H73       -81.9119   27.5395  -71.3320 H         1 UNK         0.0837 
     74 H74       -81.1771   28.2970  -69.0757 H         1 UNK         0.0685 
     75 H75       -80.6171   29.9060  -68.6945 H         1 UNK         0.0685 
     76 H76       -79.3188   26.8398  -69.3263 H         1 UNK         0.1434 
     77 H77       -75.7186   28.1362  -71.2615 H         1 UNK         0.1329 
     78 H78       -79.0320   30.8182  -70.9147 H         1 UNK         0.1335 
     79 H79       -75.6344   30.8929  -71.4812 H         1 UNK         0.0680 
     80 H80       -77.1279   31.5048  -72.1707 H         1 UNK         0.0680 
     81 H81       -75.3949   31.0877  -75.5861 H         1 UNK         0.1032 
     82 H82       -76.0153   32.1971  -74.4175 H         1 UNK         0.1032 
     83 H83       -73.4458   32.2288  -75.0141 H         1 UNK         0.0461 
     84 H84       -74.6872   34.1809  -73.9708 H         1 UNK         0.3453 
     85 H85       -74.1982   34.5299  -72.3346 H         1 UNK         0.3453 
     86 H86       -72.6694   30.4465  -73.0076 H         1 UNK         0.2984 
     87 H87       -70.8973   28.8166  -73.9918 H         1 UNK         0.0554 
     88 H88       -72.0426   26.8335  -72.7842 H         1 UNK         0.0847 
     89 H89       -73.5885   27.4823  -73.3222 H         1 UNK         0.0847 
     90 H90       -72.5727   28.4068  -72.2316 H         1 UNK         0.0847 
     91 H91       -72.2349   27.5463  -76.1781 H         1 UNK         0.3141 
     92 H92       -69.9892   26.0290  -77.2955 H         1 UNK         0.0743 
     93 H93       -68.9571   24.3186  -75.8097 H         1 UNK         0.0784 
     94 H94       -69.8713   23.5342  -77.0820 H         1 UNK         0.0784 
     95 H95       -70.5408   23.6380  -75.4543 H         1 UNK         0.0784 
     96 H96       -72.7364   25.3347  -76.5251 H         1 UNK         0.3213 
     97 H97       -73.6633   25.0975  -79.9435 H         1 UNK         0.0855 
     98 H98       -73.7945   22.7281  -77.9987 H         1 UNK         0.0814 
     99 H99       -73.0465   22.6820  -79.5909 H         1 UNK         0.0814 
    100 H100      -74.7756   22.9468  -79.4475 H         1 UNK         0.0814 
    101 H101      -75.2570   24.6829  -77.6396 H         1 UNK         0.3105 
    102 H102      -75.3959   27.9471  -76.3785 H         1 UNK         0.0547 
    103 H103      -77.8377   27.8846  -76.8402 H         1 UNK         0.0837 
    104 H104      -76.9440   28.2841  -78.2983 H         1 UNK         0.0837 
    105 H105      -77.5891   26.6620  -78.0862 H         1 UNK         0.0837 
    106 H106      -77.1041   25.9134  -75.6712 H         1 UNK         0.3020 
    107 H107      -74.9944   24.2481  -73.2973 H         1 UNK         0.1245 
    108 H108      -77.4194   26.1357  -73.4014 H         1 UNK         0.0781 
    109 H109      -75.9183   26.3909  -72.5641 H         1 UNK         0.0781 
    110 H110      -77.1749   25.5290  -69.1353 H         1 UNK         0.0836 
    111 H111      -75.7587   26.0154  -70.0276 H         1 UNK         0.0836 
    112 H112      -77.6041   23.8312  -74.6055 H         1 UNK         0.3022 
    113 H113      -76.4919   21.0126  -76.4235 H         1 UNK         0.0747 
    114 H114      -78.2599   19.7256  -75.2370 H         1 UNK         0.0793 
    115 H115      -76.8453   19.8956  -74.2121 H         1 UNK         0.0793 
    116 H116      -78.2604   20.8957  -73.9156 H         1 UNK         0.0793 
    117 H117      -79.1091   22.0327  -75.9538 H         1 UNK         0.3047 
    118 H118      -79.0492   24.7924  -78.1581 H         1 UNK         0.0822 
    119 H119      -80.9381   23.5813  -79.2112 H         1 UNK         0.0807 
    120 H120      -80.4203   22.0658  -78.4711 H         1 UNK         0.0807 
    121 H121      -79.4160   22.8469  -79.6844 H         1 UNK         0.0807 
    122 H122      -81.1665   23.6470  -76.6659 H         1 UNK         0.2946 
    123 H123      -81.9789   24.8032  -74.8337 H         1 UNK         0.1144 
    124 H124      -81.4640   23.6996  -72.6347 H         1 UNK         0.0793 
    125 H125      -79.7460   23.6968  -73.0270 H         1 UNK         0.0793 
    126 H126      -80.8719   22.7350  -73.9748 H         1 UNK         0.0793 
    127 H127      -80.2318   26.0956  -72.8545 H         1 UNK         0.2896 
@<TRIPOS>BOND
     1    1    2 1    
     2    1   67 1    
     3    1   68 1    
     4    1   69 1    
     5    2    3 2    
     6    2    4 am   BACKBONE|DICT|INTERRES
     7    4    5 1    
     8    4   70 1    
     9    5    6 1    
    10    5   65 1    
    11    5   71 1    
    12    6    7 1    
    13    6   72 1    
    14    6   73 1    
    15    7    8 1    
    16    8    9 1    
    17    8   74 1    
    18    8   75 1    
    19    9   10 ar   
    20    9   14 ar   
    21   10   11 ar   
    22   10   76 1    
    23   11   12 ar   
    24   11   48 1    
    25   12   13 ar   
    26   12   77 1    
    27   13   14 ar   
    28   13   15 1    
    29   14   78 1    
    30   15   16 1    
    31   15   79 1    
    32   15   80 1    
    33   16   17 1    
    34   17   18 1    
    35   17   81 1    
    36   17   82 1    
    37   18   19 1    
    38   18   22 1    
    39   18   83 1    
    40   19   20 am   BACKBONE|DICT|INTERRES
    41   19   21 2    
    42   20   84 1    
    43   20   85 1    
    44   22   23 am   BACKBONE|DICT|INTERRES
    45   22   86 1    
    46   23   24 2    
    47   23   25 1    
    48   25   26 1    
    49   25   27 1    
    50   25   87 1    
    51   26   88 1    
    52   26   89 1    
    53   26   90 1    
    54   27   28 am   BACKBONE|DICT|INTERRES
    55   27   91 1    
    56   28   29 2    
    57   28   30 1    
    58   30   31 1    
    59   30   32 1    
    60   30   92 1    
    61   31   93 1    
    62   31   94 1    
    63   31   95 1    
    64   32   33 am   BACKBONE|DICT|INTERRES
    65   32   96 1    
    66   33   34 2    
    67   33   35 1    
    68   35   36 1    
    69   35   37 1    
    70   35   97 1    
    71   36   98 1    
    72   36   99 1    
    73   36  100 1    
    74   37   38 am   BACKBONE|DICT|INTERRES
    75   37  101 1    
    76   38   39 2    
    77   38   40 1    
    78   40   41 1    
    79   40   42 1    
    80   40  102 1    
    81   41  103 1    
    82   41  104 1    
    83   41  105 1    
    84   42   43 am   BACKBONE|DICT|INTERRES
    85   42  106 1    
    86   43   44 2    
    87   43   45 1    
    88   45   46 1    
    89   45   49 1    
    90   45  107 1    
    91   46   47 1    
    92   46  108 1    
    93   46  109 1    
    94   47   48 1    
    95   48  110 1    
    96   48  111 1    
    97   49   50 am   BACKBONE|DICT|INTERRES
    98   49  112 1    
    99   50   51 2    
   100   50   52 1    
   101   52   53 1    
   102   52   54 1    
   103   52  113 1    
   104   53  114 1    
   105   53  115 1    
   106   53  116 1    
   107   54   55 am   BACKBONE|DICT|INTERRES
   108   54  117 1    
   109   55   56 2    
   110   55   57 1    
   111   57   58 1    
   112   57   59 1    
   113   57  118 1    
   114   58  119 1    
   115   58  120 1    
   116   58  121 1    
   117   59   60 am   BACKBONE|DICT|INTERRES
   118   59  122 1    
   119   60   61 2    
   120   60   62 1    
   121   62   63 1    
   122   62   64 1    
   123   62  123 1    
   124   63  124 1    
   125   63  125 1    
   126   63  126 1    
   127   64   65 am   BACKBONE|DICT|INTERRES
   128   64  127 1    
   129   65   66 2    
@<TRIPOS>SUBSTRUCTURE
     1 UNK         1 GROUP             0       ****    0 ROOT    
