@<TRIPOS>MOLECULE
3R135
127   129    1
SMALL
USER_CHARGES


@<TRIPOS>ATOM
      1 CA        -79.1804   30.3613  -77.6523 C.3       0 UNK        -0.1998 
      2 C         -79.6626   29.1225  -76.9129 C.2       0 UNK         0.4909 
      3 O         -80.6075   28.4737  -77.3612 O.2       0 UNK        -0.5240 
      4 N         -79.0015   28.7808  -75.7982 N.am      1 UNK        -0.4739 
      5 CA        -79.2920   27.6812  -74.8585 C.3       1 UNK         0.0864 
      6 C6        -80.7051   27.7412  -74.2133 C.3       11 UNK        -0.0881 
      7 S7        -81.1263   29.3826  -73.5267 S.3       11 UNK        -0.2682 
      8 C8        -80.7662   29.1781  -71.7499 C.3       11 UNK         0.0289 
      9 C9        -79.2913   28.9276  -71.4507 C.ar      11 UNK        -0.0687 
     10 C10       -78.9274   27.9112  -70.5629 C.ar      11 UNK        -0.0823 
     11 C11       -77.5818   27.6673  -70.2781 C.ar      11 UNK        -0.0830 
     12 C12       -76.5964   28.4431  -70.8929 C.ar      11 UNK        -0.1021 
     13 C13       -76.9387   29.4735  -71.7775 C.ar      11 UNK        -0.0753 
     14 C14       -78.2919   29.7140  -72.0374 C.ar      11 UNK        -0.0933 
     15 C15       -75.8883   30.3282  -72.4923 C.3       11 UNK         0.0166 
     16 S16       -74.2946   30.4989  -71.6146 S.3       11 UNK        -0.2615 
     17 C17       -73.4134   28.9808  -72.1300 C.3       11 UNK        -0.0865 
     18 CA        -72.0714   29.2856  -72.8458 C.3       10 UNK         0.0862 
     19 C         -71.2486   27.9908  -73.1174 C.2       10 UNK         0.5551 
     20 N         -70.6665   27.7936  -74.2947 N.am      10 UNK        -0.7319 
     21 O         -71.1229   27.1466  -72.2340 O.2       10 UNK        -0.5018 
     22 N         -72.2666   30.1231  -74.0404 N.am      10 UNK        -0.4509 
     23 C         -71.4551   31.1193  -74.4139 C.2       10 UNK         0.4899 
     24 O         -70.4774   31.4903  -73.7613 O.2       10 UNK        -0.4839 
     25 CA        -71.7910   31.8009  -75.7566 C.3       9 UNK         0.0222 
     26 CB        -70.6618   32.7300  -76.2505 C.3       9 UNK        -0.1966 
     27 N         -72.1663   30.8559  -76.8180 N.am      9 UNK        -0.4218 
     28 C         -71.4681   29.8003  -77.2602 C.2       9 UNK         0.5020 
     29 O         -70.4084   29.4190  -76.7600 O.2       9 UNK        -0.5274 
     30 CA        -72.0790   29.0287  -78.4463 C.3       8 UNK         0.0270 
     31 CB        -71.1399   27.9310  -78.9823 C.3       8 UNK        -0.1976 
     32 N         -73.3690   28.4204  -78.1135 N.am      8 UNK        -0.4313 
     33 C         -74.5338   29.0682  -77.9762 C.2       8 UNK         0.5041 
     34 O         -74.6474   30.2905  -78.0829 O.2       8 UNK        -0.5577 
     35 CA        -75.7812   28.2220  -77.6733 C.3       7 UNK         0.0284 
     36 CB        -76.6341   28.0568  -78.9405 C.3       7 UNK        -0.1958 
     37 N         -75.4609   26.8988  -77.1277 N.am      7 UNK        -0.4454 
     38 C         -75.2044   26.6685  -75.8350 C.2       7 UNK         0.5089 
     39 O         -75.2455   27.5347  -74.9585 O.2       7 UNK        -0.5125 
     40 CA        -74.8207   25.2348  -75.4579 C.3       6 UNK         0.0408 
     41 CB        -73.2930   25.0744  -75.3829 C.3       6 UNK        -0.1791 
     42 N         -75.4184   24.9431  -74.1619 N.am      6 UNK        -0.4762 
     43 C         -75.8415   23.7438  -73.7454 C.2       6 UNK         0.5007 
     44 O         -75.6652   22.7041  -74.3838 O.2       6 UNK        -0.5032 
     45 CA        -76.6245   23.6855  -72.4202 C.3       5 UNK         0.0783 
     46 C46       -76.5593   24.9994  -71.5930 C.3       11 UNK        -0.0857 
     47 S47       -77.4670   24.8994  -70.0130 S.3       11 UNK        -0.2512 
     48 C48       -77.1832   26.5570  -69.3153 C.3       11 UNK         0.0225 
     49 N         -77.9956   23.3335  -72.7778 N.am      5 UNK        -0.4615 
     50 C         -78.7348   22.3802  -72.2019 C.2       4 UNK         0.5053 
     51 O         -78.3398   21.6478  -71.2938 O.2       4 UNK        -0.5105 
     52 CA        -80.1635   22.2140  -72.7424 C.3       4 UNK         0.0263 
     53 CB        -81.0467   23.4049  -72.3313 C.3       4 UNK        -0.1981 
     54 N         -80.1808   22.0729  -74.1976 N.am      4 UNK        -0.4224 
     55 C         -79.7159   21.0189  -74.8798 C.2       3 UNK         0.4895 
     56 O         -79.2940   19.9923  -74.3465 O.2       3 UNK        -0.5091 
     57 CA        -79.7022   21.1187  -76.4173 C.3       3 UNK         0.0250 
     58 CB        -81.0656   20.7192  -77.0159 C.3       3 UNK        -0.1996 
     59 N         -79.2316   22.4121  -76.9400 N.am      3 UNK        -0.4254 
     60 C         -79.8117   23.6167  -76.8425 C.2       2 UNK         0.5004 
     61 O         -80.9064   23.8175  -76.3098 O.2       2 UNK        -0.5226 
     62 CA        -79.0235   24.7942  -77.4406 C.3       2 UNK         0.0269 
     63 CB        -79.4076   24.9865  -78.9170 C.3       2 UNK        -0.1926 
     64 N         -79.2391   26.0527  -76.7204 N.am      2 UNK        -0.4687 
     65 C         -79.0052   26.2711  -75.4191 C.2       1 UNK         0.5165 
     66 O         -78.5566   25.4113  -74.6609 O.2       1 UNK        -0.5079 
     67 H67       -79.9128   31.1621  -77.5542 H         1 UNK         0.0900 
     68 H68       -79.0566   30.1428  -78.7126 H         1 UNK         0.0900 
     69 H69       -78.2264   30.7222  -77.2682 H         1 UNK         0.0900 
     70 H70       -78.2246   29.3599  -75.5141 H         1 UNK         0.2959 
     71 H71       -78.5673   27.8084  -74.0534 H         1 UNK         0.1079 
     72 H72       -80.7934   26.9932  -73.4228 H         1 UNK         0.0837 
     73 H73       -81.4686   27.4870  -74.9508 H         1 UNK         0.0837 
     74 H74       -81.0760   30.0831  -71.2260 H         1 UNK         0.0685 
     75 H75       -81.3860   28.3691  -71.3599 H         1 UNK         0.0685 
     76 H76       -79.6884   27.3012  -70.0952 H         1 UNK         0.1434 
     77 H77       -75.5616   28.2321  -70.6736 H         1 UNK         0.1329 
     78 H78       -78.5717   30.5070  -72.7174 H         1 UNK         0.1335 
     79 H79       -75.7169   29.9256  -73.4915 H         1 UNK         0.0680 
     80 H80       -76.2852   31.3346  -72.6344 H         1 UNK         0.0680 
     81 H81       -74.0538   28.3684  -72.7660 H         1 UNK         0.1032 
     82 H82       -73.2336   28.3906  -71.2296 H         1 UNK         0.1032 
     83 H83       -71.4676   29.8460  -72.1296 H         1 UNK         0.0461 
     84 H84       -70.1308   26.9529  -74.4367 H         1 UNK         0.3453 
     85 H85       -70.6987   28.4943  -75.0273 H         1 UNK         0.3453 
     86 H86       -73.0340   29.8652  -74.6429 H         1 UNK         0.2984 
     87 H87       -72.6708   32.4188  -75.5714 H         1 UNK         0.0554 
     88 H88       -70.9362   33.2300  -77.1793 H         1 UNK         0.0847 
     89 H89       -69.7362   32.1804  -76.4264 H         1 UNK         0.0847 
     90 H90       -70.4446   33.5087  -75.5182 H         1 UNK         0.0847 
     91 H91       -73.0702   31.0113  -77.2615 H         1 UNK         0.3141 
     92 H92       -72.2356   29.7506  -79.2509 H         1 UNK         0.0743 
     93 H93       -70.9491   27.1599  -78.2345 H         1 UNK         0.0784 
     94 H94       -71.5571   27.4471  -79.8657 H         1 UNK         0.0784 
     95 H95       -70.1749   28.3498  -79.2715 H         1 UNK         0.0784 
     96 H96       -73.3691   27.4206  -77.9815 H         1 UNK         0.3213 
     97 H97       -76.3691   28.7774  -76.9404 H         1 UNK         0.0855 
     98 H98       -76.1329   27.4480  -79.6938 H         1 UNK         0.0814 
     99 H99       -76.8510   29.0237  -79.3968 H         1 UNK         0.0814 
    100 H100      -77.5905   27.5915  -78.7091 H         1 UNK         0.0814 
    101 H101      -75.4169   26.1317  -77.7839 H         1 UNK         0.3105 
    102 H102      -75.2250   24.5528  -76.2092 H         1 UNK         0.0547 
    103 H103      -72.8562   25.7372  -74.6350 H         1 UNK         0.0837 
    104 H104      -73.0146   24.0526  -75.1250 H         1 UNK         0.0837 
    105 H105      -72.8237   25.3059  -76.3395 H         1 UNK         0.0837 
    106 H106      -75.6476   25.7701  -73.6251 H         1 UNK         0.3020 
    107 H107      -76.1725   22.8834  -71.8323 H         1 UNK         0.1245 
    108 H108      -75.5238   25.2652  -71.3713 H         1 UNK         0.0781 
    109 H109      -76.9860   25.8230  -72.1684 H         1 UNK         0.0781 
    110 H110      -76.1332   26.6466  -69.0322 H         1 UNK         0.0836 
    111 H111      -77.7558   26.6558  -68.3921 H         1 UNK         0.0836 
    112 H112      -78.3896   23.8923  -73.5308 H         1 UNK         0.3022 
    113 H113      -80.5866   21.3066  -72.3060 H         1 UNK         0.0747 
    114 H114      -82.0827   23.2523  -72.6341 H         1 UNK         0.0793 
    115 H115      -81.0410   23.5388  -71.2486 H         1 UNK         0.0793 
    116 H116      -80.7025   24.3394  -72.7769 H         1 UNK         0.0793 
    117 H117      -80.5239   22.8605  -74.7427 H         1 UNK         0.3047 
    118 H118      -78.9720   20.3856  -76.7644 H         1 UNK         0.0822 
    119 H119      -81.0383   20.7285  -78.1055 H         1 UNK         0.0807 
    120 H120      -81.8673   21.3847  -76.6947 H         1 UNK         0.0807 
    121 H121      -81.3428   19.7103  -76.7074 H         1 UNK         0.0807 
    122 H122      -78.3257   22.3693  -77.3866 H         1 UNK         0.2946 
    123 H123      -77.9579   24.5648  -77.3767 H         1 UNK         0.1144 
    124 H124      -80.4532   25.2789  -79.0231 H         1 UNK         0.0793 
    125 H125      -79.2690   24.0645  -79.4836 H         1 UNK         0.0793 
    126 H126      -78.7971   25.7493  -79.3976 H         1 UNK         0.0793 
    127 H127      -79.6888   26.8076  -77.2302 H         1 UNK         0.2896 
@<TRIPOS>BOND
     1    1    2 1    
     2    1   67 1    
     3    1   68 1    
     4    1   69 1    
     5    2    3 2    
     6    2    4 am   BACKBONE|DICT|INTERRES
     7    4    5 1    
     8    4   70 1    
     9    5    6 1    
    10    5   65 1    
    11    5   71 1    
    12    6    7 1    
    13    6   72 1    
    14    6   73 1    
    15    7    8 1    
    16    8    9 1    
    17    8   74 1    
    18    8   75 1    
    19    9   10 ar   
    20    9   14 ar   
    21   10   11 ar   
    22   10   76 1    
    23   11   12 ar   
    24   11   48 1    
    25   12   13 ar   
    26   12   77 1    
    27   13   14 ar   
    28   13   15 1    
    29   14   78 1    
    30   15   16 1    
    31   15   79 1    
    32   15   80 1    
    33   16   17 1    
    34   17   18 1    
    35   17   81 1    
    36   17   82 1    
    37   18   19 1    
    38   18   22 1    
    39   18   83 1    
    40   19   20 am   BACKBONE|DICT|INTERRES
    41   19   21 2    
    42   20   84 1    
    43   20   85 1    
    44   22   23 am   BACKBONE|DICT|INTERRES
    45   22   86 1    
    46   23   24 2    
    47   23   25 1    
    48   25   26 1    
    49   25   27 1    
    50   25   87 1    
    51   26   88 1    
    52   26   89 1    
    53   26   90 1    
    54   27   28 am   BACKBONE|DICT|INTERRES
    55   27   91 1    
    56   28   29 2    
    57   28   30 1    
    58   30   31 1    
    59   30   32 1    
    60   30   92 1    
    61   31   93 1    
    62   31   94 1    
    63   31   95 1    
    64   32   33 am   BACKBONE|DICT|INTERRES
    65   32   96 1    
    66   33   34 2    
    67   33   35 1    
    68   35   36 1    
    69   35   37 1    
    70   35   97 1    
    71   36   98 1    
    72   36   99 1    
    73   36  100 1    
    74   37   38 am   BACKBONE|DICT|INTERRES
    75   37  101 1    
    76   38   39 2    
    77   38   40 1    
    78   40   41 1    
    79   40   42 1    
    80   40  102 1    
    81   41  103 1    
    82   41  104 1    
    83   41  105 1    
    84   42   43 am   BACKBONE|DICT|INTERRES
    85   42  106 1    
    86   43   44 2    
    87   43   45 1    
    88   45   46 1    
    89   45   49 1    
    90   45  107 1    
    91   46   47 1    
    92   46  108 1    
    93   46  109 1    
    94   47   48 1    
    95   48  110 1    
    96   48  111 1    
    97   49   50 am   BACKBONE|DICT|INTERRES
    98   49  112 1    
    99   50   51 2    
   100   50   52 1    
   101   52   53 1    
   102   52   54 1    
   103   52  113 1    
   104   53  114 1    
   105   53  115 1    
   106   53  116 1    
   107   54   55 am   BACKBONE|DICT|INTERRES
   108   54  117 1    
   109   55   56 2    
   110   55   57 1    
   111   57   58 1    
   112   57   59 1    
   113   57  118 1    
   114   58  119 1    
   115   58  120 1    
   116   58  121 1    
   117   59   60 am   BACKBONE|DICT|INTERRES
   118   59  122 1    
   119   60   61 2    
   120   60   62 1    
   121   62   63 1    
   122   62   64 1    
   123   62  123 1    
   124   63  124 1    
   125   63  125 1    
   126   63  126 1    
   127   64   65 am   BACKBONE|DICT|INTERRES
   128   64  127 1    
   129   65   66 2    
@<TRIPOS>SUBSTRUCTURE
     1 UNK         1 GROUP             0       ****    0 ROOT    
