@<TRIPOS>MOLECULE
3R135
127   129    1
SMALL
USER_CHARGES


@<TRIPOS>ATOM
      1 CA        -82.0529   24.5374  -73.3212 C.3       0 UNK        -0.1998 
      2 C         -82.0021   25.6324  -74.3755 C.2       0 UNK         0.4909 
      3 O         -82.8623   25.6813  -75.2555 O.2       0 UNK        -0.5240 
      4 N         -80.9890   26.5041  -74.3071 N.am      1 UNK        -0.4739 
      5 CA        -80.7473   27.6045  -75.2465 C.3       1 UNK         0.0864 
      6 C6        -79.9325   28.7432  -74.5831 C.3       11 UNK        -0.0881 
      7 S7        -80.9280   29.6954  -73.3861 S.3       11 UNK        -0.2682 
      8 C8        -80.4245   28.9816  -71.7814 C.3       11 UNK         0.0289 
      9 C9        -78.9557   29.1692  -71.3947 C.ar      11 UNK        -0.0687 
     10 C10       -78.4023   28.2981  -70.4526 C.ar      11 UNK        -0.0823 
     11 C11       -77.0637   28.4138  -70.0701 C.ar      11 UNK        -0.0830 
     12 C12       -76.2763   29.4286  -70.6198 C.ar      11 UNK        -0.1021 
     13 C13       -76.8092   30.3158  -71.5638 C.ar      11 UNK        -0.0753 
     14 C14       -78.1520   30.1835  -71.9336 C.ar      11 UNK        -0.0933 
     15 C15       -75.9864   31.4421  -72.1954 C.3       11 UNK         0.0166 
     16 S16       -74.1715   31.2447  -72.1182 S.3       11 UNK        -0.2615 
     17 C17       -73.9141   29.8287  -73.2389 C.3       11 UNK        -0.0865 
     18 CA        -72.4713   29.2619  -73.1764 C.3       10 UNK         0.0862 
     19 C         -72.2390   28.3704  -71.9212 C.2       10 UNK         0.5551 
     20 N         -72.2512   27.0477  -72.0385 N.am      10 UNK        -0.7319 
     21 O         -72.0181   28.8850  -70.8282 O.2       10 UNK        -0.5018 
     22 N         -72.1240   28.6056  -74.4428 N.am      10 UNK        -0.4509 
     23 C         -70.8795   28.3648  -74.8728 C.2       10 UNK         0.4899 
     24 O         -69.8639   28.7204  -74.2742 O.2       10 UNK        -0.4839 
     25 CA        -70.7393   27.6130  -76.2052 C.3       9 UNK         0.0222 
     26 CB        -70.8026   26.0951  -75.9688 C.3       9 UNK        -0.1966 
     27 N         -71.7892   27.9969  -77.1524 N.am      9 UNK        -0.4218 
     28 C         -71.6260   28.8315  -78.1881 C.2       9 UNK         0.5020 
     29 O         -70.5515   29.3599  -78.4787 O.2       9 UNK        -0.5274 
     30 CA        -72.8550   29.1201  -79.0737 C.3       8 UNK         0.0270 
     31 CB        -72.8408   28.2146  -80.3165 C.3       8 UNK        -0.1976 
     32 N         -74.1367   28.9609  -78.3820 N.am      8 UNK        -0.4313 
     33 C         -74.6108   29.7986  -77.4501 C.2       8 UNK         0.5041 
     34 O         -74.0428   30.8369  -77.1111 O.2       8 UNK        -0.5577 
     35 CA        -75.9366   29.4088  -76.7651 C.3       7 UNK         0.0284 
     36 CB        -77.1141   30.0463  -77.5202 C.3       7 UNK        -0.1958 
     37 N         -76.1836   27.9651  -76.6125 N.am      7 UNK        -0.4454 
     38 C         -75.3357   27.0635  -76.1008 C.2       7 UNK         0.5089 
     39 O         -74.1839   27.3388  -75.7707 O.2       7 UNK        -0.5125 
     40 CA        -75.8380   25.6138  -75.9792 C.3       6 UNK         0.0408 
     41 CB        -74.9539   24.6474  -76.7900 C.3       6 UNK        -0.1791 
     42 N         -75.9614   25.1781  -74.5837 N.am      6 UNK        -0.4762 
     43 C         -75.0044   25.0629  -73.6440 C.2       6 UNK         0.5007 
     44 O         -73.7999   25.2316  -73.8347 O.2       6 UNK        -0.5032 
     45 CA        -75.4856   24.6983  -72.2248 C.3       5 UNK         0.0783 
     46 C46       -75.8000   25.9981  -71.4495 C.3       11 UNK        -0.0857 
     47 S47       -76.4389   25.7147  -69.7641 S.3       11 UNK        -0.2512 
     48 C48       -76.4520   27.4138  -69.0964 C.3       11 UNK         0.0225 
     49 N         -76.6308   23.7844  -72.2551 N.am      5 UNK        -0.4615 
     50 C         -76.5905   22.5167  -72.6794 C.2       4 UNK         0.5053 
     51 O         -75.5598   21.9395  -73.0268 O.2       4 UNK        -0.5105 
     52 CA        -77.9304   21.7679  -72.7632 C.3       4 UNK         0.0263 
     53 CB        -78.9891   22.2567  -71.7469 C.3       4 UNK        -0.1981 
     54 N         -78.4527   21.7906  -74.1340 N.am      4 UNK        -0.4224 
     55 C         -78.8173   22.8668  -74.8465 C.2       3 UNK         0.4895 
     56 O         -78.7979   24.0246  -74.4138 O.2       3 UNK        -0.5091 
     57 CA        -79.2833   22.5987  -76.2857 C.3       3 UNK         0.0250 
     58 CB        -80.4005   21.5380  -76.3530 C.3       3 UNK        -0.1996 
     59 N         -79.7752   23.8458  -76.8576 N.am      3 UNK        -0.4254 
     60 C         -79.7158   24.2203  -78.1394 C.2       2 UNK         0.5004 
     61 O         -79.2148   23.5310  -79.0286 O.2       2 UNK        -0.5226 
     62 CA        -80.3398   25.5842  -78.5011 C.3       2 UNK         0.0269 
     63 CB        -81.5062   25.4037  -79.4877 C.3       2 UNK        -0.1926 
     64 N         -80.8293   26.3176  -77.3280 N.am      2 UNK        -0.4687 
     65 C         -80.0630   27.0514  -76.5127 C.2       1 UNK         0.5165 
     66 O         -78.8623   27.2401  -76.7073 O.2       1 UNK        -0.5079 
     67 H67       -81.2842   24.6718  -72.5607 H         1 UNK         0.0900 
     68 H68       -81.9046   23.5626  -73.7848 H         1 UNK         0.0900 
     69 H69       -83.0231   24.5371  -72.8255 H         1 UNK         0.0900 
     70 H70       -80.2783   26.3743  -73.6017 H         1 UNK         0.2959 
     71 H71       -81.7061   28.0219  -75.5638 H         1 UNK         0.1079 
     72 H72       -79.0252   28.3585  -74.1136 H         1 UNK         0.0837 
     73 H73       -79.6002   29.4602  -75.3345 H         1 UNK         0.0837 
     74 H74       -81.0403   29.4326  -71.0024 H         1 UNK         0.0685 
     75 H75       -80.6719   27.9192  -71.7893 H         1 UNK         0.0685 
     76 H76       -79.0078   27.5087  -70.0279 H         1 UNK         0.1434 
     77 H77       -75.2427   29.5128  -70.3153 H         1 UNK         0.1329 
     78 H78       -78.5666   30.8785  -72.6499 H         1 UNK         0.1335 
     79 H79       -76.2710   31.5633  -73.2420 H         1 UNK         0.0680 
     80 H80       -76.2480   32.3752  -71.6949 H         1 UNK         0.0680 
     81 H81       -74.1209   30.1949  -74.2451 H         1 UNK         0.1032 
     82 H82       -74.6518   29.0468  -73.0474 H         1 UNK         0.1032 
     83 H83       -71.7906   30.1104  -73.0799 H         1 UNK         0.0461 
     84 H84       -72.0710   26.4841  -71.2240 H         1 UNK         0.3453 
     85 H85       -72.4916   26.6021  -72.9157 H         1 UNK         0.3453 
     86 H86       -72.9020   28.1995  -74.9606 H         1 UNK         0.2984 
     87 H87       -69.7555   27.8461  -76.6177 H         1 UNK         0.0554 
     88 H88       -70.6443   25.5432  -76.8952 H         1 UNK         0.0847 
     89 H89       -71.7654   25.7890  -75.5580 H         1 UNK         0.0847 
     90 H90       -70.0324   25.7765  -75.2651 H         1 UNK         0.0847 
     91 H91       -72.7252   27.6667  -76.9342 H         1 UNK         0.3141 
     92 H92       -72.7783   30.1570  -79.4083 H         1 UNK         0.0743 
     93 H93       -71.9106   28.3328  -80.8744 H         1 UNK         0.0784 
     94 H94       -72.9286   27.1604  -80.0503 H         1 UNK         0.0784 
     95 H95       -73.6567   28.4601  -80.9967 H         1 UNK         0.0784 
     96 H96       -74.6793   28.1382  -78.6012 H         1 UNK         0.3213 
     97 H97       -75.9151   29.8309  -75.7592 H         1 UNK         0.0855 
     98 H98       -76.9681   31.1208  -77.6411 H         1 UNK         0.0814 
     99 H99       -78.0524   29.9103  -76.9858 H         1 UNK         0.0814 
    100 H100      -77.2328   29.6181  -78.5162 H         1 UNK         0.0814 
    101 H101      -77.1382   27.6583  -76.8036 H         1 UNK         0.3105 
    102 H102      -76.8436   25.5608  -76.3980 H         1 UNK         0.0547 
    103 H103      -74.9403   24.9246  -77.8445 H         1 UNK         0.0837 
    104 H104      -73.9204   24.6482  -76.4425 H         1 UNK         0.0837 
    105 H105      -75.3266   23.6251  -76.7275 H         1 UNK         0.0837 
    106 H106      -76.9125   24.9726  -74.2948 H         1 UNK         0.3020 
    107 H107      -74.6618   24.1860  -71.7224 H         1 UNK         0.1245 
    108 H108      -76.5387   26.5870  -71.9972 H         1 UNK         0.0781 
    109 H109      -74.9084   26.6222  -71.3724 H         1 UNK         0.0781 
    110 H110      -75.4289   27.6967  -68.8432 H         1 UNK         0.0836 
    111 H111      -77.0141   27.4268  -68.1617 H         1 UNK         0.0836 
    112 H112      -77.5240   24.1770  -71.9971 H         1 UNK         0.3022 
    113 H113      -77.7146   20.7240  -72.5297 H         1 UNK         0.0747 
    114 H114      -79.8753   21.6228  -71.7742 H         1 UNK         0.0793 
    115 H115      -78.5986   22.2177  -70.7290 H         1 UNK         0.0793 
    116 H116      -79.3152   23.2796  -71.9326 H         1 UNK         0.0793 
    117 H117      -78.4771   20.8914  -74.5943 H         1 UNK         0.3047 
    118 H118      -78.4156   22.2562  -76.8536 H         1 UNK         0.0822 
    119 H119      -80.7561   21.4039  -77.3749 H         1 UNK         0.0807 
    120 H120      -81.2573   21.8174  -75.7385 H         1 UNK         0.0807 
    121 H121      -80.0533   20.5629  -76.0105 H         1 UNK         0.0807 
    122 H122      -80.1151   24.5120  -76.1774 H         1 UNK         0.2946 
    123 H123      -79.5615   26.1730  -78.9922 H         1 UNK         0.1144 
    124 H124      -81.9237   26.3649  -79.7882 H         1 UNK         0.0793 
    125 H125      -82.3110   24.8077  -79.0555 H         1 UNK         0.0793 
    126 H126      -81.1773   24.8979  -80.3966 H         1 UNK         0.0793 
    127 H127      -81.7900   26.1498  -77.0482 H         1 UNK         0.2896 
@<TRIPOS>BOND
     1    1    2 1    
     2    1   67 1    
     3    1   68 1    
     4    1   69 1    
     5    2    3 2    
     6    2    4 am   BACKBONE|DICT|INTERRES
     7    4    5 1    
     8    4   70 1    
     9    5    6 1    
    10    5   65 1    
    11    5   71 1    
    12    6    7 1    
    13    6   72 1    
    14    6   73 1    
    15    7    8 1    
    16    8    9 1    
    17    8   74 1    
    18    8   75 1    
    19    9   10 ar   
    20    9   14 ar   
    21   10   11 ar   
    22   10   76 1    
    23   11   12 ar   
    24   11   48 1    
    25   12   13 ar   
    26   12   77 1    
    27   13   14 ar   
    28   13   15 1    
    29   14   78 1    
    30   15   16 1    
    31   15   79 1    
    32   15   80 1    
    33   16   17 1    
    34   17   18 1    
    35   17   81 1    
    36   17   82 1    
    37   18   19 1    
    38   18   22 1    
    39   18   83 1    
    40   19   20 am   BACKBONE|DICT|INTERRES
    41   19   21 2    
    42   20   84 1    
    43   20   85 1    
    44   22   23 am   BACKBONE|DICT|INTERRES
    45   22   86 1    
    46   23   24 2    
    47   23   25 1    
    48   25   26 1    
    49   25   27 1    
    50   25   87 1    
    51   26   88 1    
    52   26   89 1    
    53   26   90 1    
    54   27   28 am   BACKBONE|DICT|INTERRES
    55   27   91 1    
    56   28   29 2    
    57   28   30 1    
    58   30   31 1    
    59   30   32 1    
    60   30   92 1    
    61   31   93 1    
    62   31   94 1    
    63   31   95 1    
    64   32   33 am   BACKBONE|DICT|INTERRES
    65   32   96 1    
    66   33   34 2    
    67   33   35 1    
    68   35   36 1    
    69   35   37 1    
    70   35   97 1    
    71   36   98 1    
    72   36   99 1    
    73   36  100 1    
    74   37   38 am   BACKBONE|DICT|INTERRES
    75   37  101 1    
    76   38   39 2    
    77   38   40 1    
    78   40   41 1    
    79   40   42 1    
    80   40  102 1    
    81   41  103 1    
    82   41  104 1    
    83   41  105 1    
    84   42   43 am   BACKBONE|DICT|INTERRES
    85   42  106 1    
    86   43   44 2    
    87   43   45 1    
    88   45   46 1    
    89   45   49 1    
    90   45  107 1    
    91   46   47 1    
    92   46  108 1    
    93   46  109 1    
    94   47   48 1    
    95   48  110 1    
    96   48  111 1    
    97   49   50 am   BACKBONE|DICT|INTERRES
    98   49  112 1    
    99   50   51 2    
   100   50   52 1    
   101   52   53 1    
   102   52   54 1    
   103   52  113 1    
   104   53  114 1    
   105   53  115 1    
   106   53  116 1    
   107   54   55 am   BACKBONE|DICT|INTERRES
   108   54  117 1    
   109   55   56 2    
   110   55   57 1    
   111   57   58 1    
   112   57   59 1    
   113   57  118 1    
   114   58  119 1    
   115   58  120 1    
   116   58  121 1    
   117   59   60 am   BACKBONE|DICT|INTERRES
   118   59  122 1    
   119   60   61 2    
   120   60   62 1    
   121   62   63 1    
   122   62   64 1    
   123   62  123 1    
   124   63  124 1    
   125   63  125 1    
   126   63  126 1    
   127   64   65 am   BACKBONE|DICT|INTERRES
   128   64  127 1    
   129   65   66 2    
@<TRIPOS>SUBSTRUCTURE
     1 UNK         1 GROUP             0       ****    0 ROOT    
