@<TRIPOS>MOLECULE
3R135
127   129    1
SMALL
USER_CHARGES


@<TRIPOS>ATOM
      1 CA        -84.9463   24.6679  -69.7338 C.3       0 UNK        -0.1998 
      2 C         -84.4502   25.0125  -71.1300 C.2       0 UNK         0.4909 
      3 O         -85.1808   24.8240  -72.1032 O.2       0 UNK        -0.5240 
      4 N         -83.2142   25.5184  -71.2351 N.am      1 UNK        -0.4739 
      5 CA        -82.5709   25.9092  -72.4973 C.3       1 UNK         0.0864 
      6 C6        -81.2857   26.7382  -72.2526 C.3       11 UNK        -0.0881 
      7 S7        -81.6219   28.3234  -71.4191 S.3       11 UNK        -0.2682 
      8 C8        -81.0081   29.5113  -72.6665 C.3       11 UNK         0.0289 
      9 C9        -79.4902   29.7247  -72.7185 C.ar      11 UNK        -0.0687 
     10 C10       -79.0021   30.7131  -73.5781 C.ar      11 UNK        -0.0823 
     11 C11       -77.6380   31.0112  -73.6352 C.ar      11 UNK        -0.0830 
     12 C12       -76.7504   30.3161  -72.8087 C.ar      11 UNK        -0.1021 
     13 C13       -77.2062   29.2837  -71.9825 C.ar      11 UNK        -0.0753 
     14 C14       -78.5763   28.9987  -71.9400 C.ar      11 UNK        -0.0933 
     15 C15       -76.2406   28.4929  -71.1027 C.3       11 UNK         0.0166 
     16 S16       -74.8814   27.7026  -72.0349 S.3       11 UNK        -0.2615 
     17 C17       -73.5509   28.9507  -71.9079 C.3       11 UNK        -0.0865 
     18 CA        -72.9836   29.3477  -73.3008 C.3       10 UNK         0.0862 
     19 C         -72.2381   30.7192  -73.2990 C.2       10 UNK         0.5551 
     20 N         -71.2354   30.9275  -74.1438 N.am      10 UNK        -0.7319 
     21 O         -72.5960   31.6251  -72.5505 O.2       10 UNK        -0.5018 
     22 N         -72.2590   28.2430  -73.9610 N.am      10 UNK        -0.4509 
     23 C         -71.0774   27.7283  -73.5913 C.2       10 UNK         0.4899 
     24 O         -70.4680   28.0792  -72.5797 O.2       10 UNK        -0.4839 
     25 CA        -70.4383   26.6932  -74.5417 C.3       9 UNK         0.0222 
     26 CB        -69.3412   25.8443  -73.8626 C.3       9 UNK        -0.1966 
     27 N         -71.4050   25.8469  -75.2518 N.am      9 UNK        -0.4218 
     28 C         -72.2314   24.9281  -74.7245 C.2       9 UNK         0.5020 
     29 O         -72.2750   24.6577  -73.5236 O.2       9 UNK        -0.5274 
     30 CA        -73.1613   24.1753  -75.6990 C.3       8 UNK         0.0270 
     31 CB        -74.5562   23.9469  -75.0940 C.3       8 UNK        -0.1976 
     32 N         -73.3237   24.9093  -76.9533 N.am      8 UNK        -0.4313 
     33 C         -72.9110   24.5140  -78.1640 C.2       8 UNK         0.5041 
     34 O         -72.3848   23.4229  -78.3854 O.2       8 UNK        -0.5577 
     35 CA        -73.0945   25.5073  -79.3301 C.3       7 UNK         0.0284 
     36 CB        -74.2888   25.0985  -80.2066 C.3       7 UNK        -0.1958 
     37 N         -73.2642   26.9002  -78.8997 N.am      7 UNK        -0.4454 
     38 C         -72.3071   27.6345  -78.3135 C.2       7 UNK         0.5089 
     39 O         -71.1656   27.2240  -78.1047 O.2       7 UNK        -0.5125 
     40 CA        -72.7022   29.0313  -77.7992 C.3       6 UNK         0.0408 
     41 CB        -72.4201   30.0963  -78.8692 C.3       6 UNK        -0.1791 
     42 N         -74.0929   29.1554  -77.3451 N.am      6 UNK        -0.4762 
     43 C         -74.6956   28.3808  -76.4312 C.2       6 UNK         0.5007 
     44 O         -74.1472   27.4099  -75.9101 O.2       6 UNK        -0.5032 
     45 CA        -76.1391   28.7268  -76.0081 C.3       5 UNK         0.0783 
     46 C46       -76.6963   30.0689  -76.5559 C.3       11 UNK        -0.0857 
     47 S47       -75.8802   31.5023  -75.7645 S.3       11 UNK        -0.2512 
     48 C48       -77.1370   32.0970  -74.5816 C.3       11 UNK         0.0225 
     49 N         -77.0481   27.6008  -76.2246 N.am      5 UNK        -0.4615 
     50 C         -77.2106   26.8706  -77.3338 C.2       4 UNK         0.5053 
     51 O         -76.6194   27.0947  -78.3921 O.2       4 UNK        -0.5105 
     52 CA        -78.1916   25.6810  -77.2291 C.3       4 UNK         0.0263 
     53 CB        -78.2219   24.8236  -78.5083 C.3       4 UNK        -0.1981 
     54 N         -77.9328   24.7997  -76.0816 N.am      4 UNK        -0.4224 
     55 C         -78.2023   25.0830  -74.8005 C.2       3 UNK         0.4895 
     56 O         -78.6657   26.1603  -74.4244 O.2       3 UNK        -0.5091 
     57 CA        -77.9307   23.9823  -73.7636 C.3       3 UNK         0.0250 
     58 CB        -77.1664   24.5366  -72.5469 C.3       3 UNK        -0.1996 
     59 N         -79.2048   23.4357  -73.3088 N.am      3 UNK        -0.4254 
     60 C         -79.9772   22.5914  -74.0067 C.2       2 UNK         0.5004 
     61 O         -79.6220   22.0332  -75.0453 O.2       2 UNK        -0.5226 
     62 CA        -81.4011   22.3624  -73.4650 C.3       2 UNK         0.0269 
     63 CB        -81.4338   21.1598  -72.5083 C.3       2 UNK        -0.1926 
     64 N         -81.9329   23.5473  -72.7803 N.am      2 UNK        -0.4687 
     65 C         -82.2366   24.7014  -73.3962 C.2       1 UNK         0.5165 
     66 O         -82.2297   24.8423  -74.6198 O.2       1 UNK        -0.5079 
     67 H67       -85.1873   23.6070  -69.6725 H         1 UNK         0.0900 
     68 H68       -85.8476   25.2362  -69.5054 H         1 UNK         0.0900 
     69 H69       -84.2022   24.8916  -68.9696 H         1 UNK         0.0900 
     70 H70       -82.6717   25.6837  -70.3988 H         1 UNK         0.2959 
     71 H71       -83.2775   26.5286  -73.0549 H         1 UNK         0.1079 
     72 H72       -80.7840   26.9457  -73.1991 H         1 UNK         0.0837 
     73 H73       -80.5675   26.1774  -71.6517 H         1 UNK         0.0837 
     74 H74       -81.3648   29.2124  -73.6534 H         1 UNK         0.0685 
     75 H75       -81.4776   30.4730  -72.4540 H         1 UNK         0.0685 
     76 H76       -79.6960   31.2661  -74.1969 H         1 UNK         0.1434 
     77 H77       -75.6997   30.5641  -72.8349 H         1 UNK         0.1329 
     78 H78       -78.9231   28.2169  -71.2810 H         1 UNK         0.1335 
     79 H79       -76.7775   27.6981  -70.5826 H         1 UNK         0.0680 
     80 H80       -75.8445   29.1412  -70.3204 H         1 UNK         0.0680 
     81 H81       -72.7605   28.5599  -71.2661 H         1 UNK         0.1032 
     82 H82       -73.9426   29.8234  -71.3843 H         1 UNK         0.1032 
     83 H83       -73.8412   29.5434  -73.9423 H         1 UNK         0.0461 
     84 H84       -70.9301   30.1984  -74.7663 H         1 UNK         0.3453 
     85 H85       -70.7695   31.8211  -74.1438 H         1 UNK         0.3453 
     86 H86       -72.7317   27.8469  -74.7682 H         1 UNK         0.2984 
     87 H87       -69.9484   27.2809  -75.3193 H         1 UNK         0.0554 
     88 H88       -68.8941   25.1382  -74.5621 H         1 UNK         0.0847 
     89 H89       -69.7313   25.2783  -73.0162 H         1 UNK         0.0847 
     90 H90       -68.5359   26.4753  -73.4844 H         1 UNK         0.0847 
     91 H91       -71.4451   25.9935  -76.2535 H         1 UNK         0.3141 
     92 H92       -72.7022   23.2019  -75.8818 H         1 UNK         0.0743 
     93 H93       -74.5002   23.3856  -74.1605 H         1 UNK         0.0784 
     94 H94       -75.0494   24.8961  -74.8826 H         1 UNK         0.0784 
     95 H95       -75.1906   23.3797  -75.7747 H         1 UNK         0.0784 
     96 H96       -73.7222   25.8403  -76.8485 H         1 UNK         0.3213 
     97 H97       -72.1909   25.4548  -79.9415 H         1 UNK         0.0855 
     98 H98       -75.2268   25.1436  -79.6542 H         1 UNK         0.0814 
     99 H99       -74.1744   24.0769  -80.5718 H         1 UNK         0.0814 
    100 H100      -74.3818   25.7450  -81.0793 H         1 UNK         0.0814 
    101 H101      -74.1923   27.2960  -78.9849 H         1 UNK         0.3105 
    102 H102      -72.0681   29.2452  -76.9366 H         1 UNK         0.0547 
    103 H103      -73.0570   29.9675  -79.7452 H         1 UNK         0.0837 
    104 H104      -72.5802   31.1024  -78.4811 H         1 UNK         0.0837 
    105 H105      -71.3845   30.0447  -79.2088 H         1 UNK         0.0837 
    106 H106      -74.6150   29.9380  -77.7138 H         1 UNK         0.3020 
    107 H107      -76.0889   28.8089  -74.9230 H         1 UNK         0.1245 
    108 H108      -76.5981   30.1341  -77.6407 H         1 UNK         0.0781 
    109 H109      -77.7680   30.1323  -76.3608 H         1 UNK         0.0781 
    110 H110      -76.7082   32.9086  -73.9922 H         1 UNK         0.0836 
    111 H111      -77.9629   32.5336  -75.1454 H         1 UNK         0.0836 
    112 H112      -77.5801   27.3033  -75.4092 H         1 UNK         0.3022 
    113 H113      -79.1865   26.1136  -77.1027 H         1 UNK         0.0747 
    114 H114      -78.9932   24.0552  -78.4508 H         1 UNK         0.0793 
    115 H115      -78.4417   25.4320  -79.3868 H         1 UNK         0.0793 
    116 H116      -77.2673   24.3270  -78.6832 H         1 UNK         0.0793 
    117 H117      -77.5688   23.8840  -76.3020 H         1 UNK         0.3047 
    118 H118      -77.3362   23.1863  -74.2167 H         1 UNK         0.0822 
    119 H119      -76.9421   23.7492  -71.8274 H         1 UNK         0.0807 
    120 H120      -77.7314   25.3128  -72.0286 H         1 UNK         0.0807 
    121 H121      -76.2168   24.9810  -72.8446 H         1 UNK         0.0807 
    122 H122      -79.5975   23.8528  -72.4788 H         1 UNK         0.2946 
    123 H123      -82.0453   22.1426  -74.3197 H         1 UNK         0.1144 
    124 H124      -82.4491   20.9480  -72.1722 H         1 UNK         0.0793 
    125 H125      -80.8146   21.3259  -71.6258 H         1 UNK         0.0793 
    126 H126      -81.0633   20.2602  -73.0018 H         1 UNK         0.0793 
    127 H127      -82.0011   23.5088  -71.7734 H         1 UNK         0.2896 
@<TRIPOS>BOND
     1    1    2 1    
     2    1   67 1    
     3    1   68 1    
     4    1   69 1    
     5    2    3 2    
     6    2    4 am   BACKBONE|DICT|INTERRES
     7    4    5 1    
     8    4   70 1    
     9    5    6 1    
    10    5   65 1    
    11    5   71 1    
    12    6    7 1    
    13    6   72 1    
    14    6   73 1    
    15    7    8 1    
    16    8    9 1    
    17    8   74 1    
    18    8   75 1    
    19    9   10 ar   
    20    9   14 ar   
    21   10   11 ar   
    22   10   76 1    
    23   11   12 ar   
    24   11   48 1    
    25   12   13 ar   
    26   12   77 1    
    27   13   14 ar   
    28   13   15 1    
    29   14   78 1    
    30   15   16 1    
    31   15   79 1    
    32   15   80 1    
    33   16   17 1    
    34   17   18 1    
    35   17   81 1    
    36   17   82 1    
    37   18   19 1    
    38   18   22 1    
    39   18   83 1    
    40   19   20 am   BACKBONE|DICT|INTERRES
    41   19   21 2    
    42   20   84 1    
    43   20   85 1    
    44   22   23 am   BACKBONE|DICT|INTERRES
    45   22   86 1    
    46   23   24 2    
    47   23   25 1    
    48   25   26 1    
    49   25   27 1    
    50   25   87 1    
    51   26   88 1    
    52   26   89 1    
    53   26   90 1    
    54   27   28 am   BACKBONE|DICT|INTERRES
    55   27   91 1    
    56   28   29 2    
    57   28   30 1    
    58   30   31 1    
    59   30   32 1    
    60   30   92 1    
    61   31   93 1    
    62   31   94 1    
    63   31   95 1    
    64   32   33 am   BACKBONE|DICT|INTERRES
    65   32   96 1    
    66   33   34 2    
    67   33   35 1    
    68   35   36 1    
    69   35   37 1    
    70   35   97 1    
    71   36   98 1    
    72   36   99 1    
    73   36  100 1    
    74   37   38 am   BACKBONE|DICT|INTERRES
    75   37  101 1    
    76   38   39 2    
    77   38   40 1    
    78   40   41 1    
    79   40   42 1    
    80   40  102 1    
    81   41  103 1    
    82   41  104 1    
    83   41  105 1    
    84   42   43 am   BACKBONE|DICT|INTERRES
    85   42  106 1    
    86   43   44 2    
    87   43   45 1    
    88   45   46 1    
    89   45   49 1    
    90   45  107 1    
    91   46   47 1    
    92   46  108 1    
    93   46  109 1    
    94   47   48 1    
    95   48  110 1    
    96   48  111 1    
    97   49   50 am   BACKBONE|DICT|INTERRES
    98   49  112 1    
    99   50   51 2    
   100   50   52 1    
   101   52   53 1    
   102   52   54 1    
   103   52  113 1    
   104   53  114 1    
   105   53  115 1    
   106   53  116 1    
   107   54   55 am   BACKBONE|DICT|INTERRES
   108   54  117 1    
   109   55   56 2    
   110   55   57 1    
   111   57   58 1    
   112   57   59 1    
   113   57  118 1    
   114   58  119 1    
   115   58  120 1    
   116   58  121 1    
   117   59   60 am   BACKBONE|DICT|INTERRES
   118   59  122 1    
   119   60   61 2    
   120   60   62 1    
   121   62   63 1    
   122   62   64 1    
   123   62  123 1    
   124   63  124 1    
   125   63  125 1    
   126   63  126 1    
   127   64   65 am   BACKBONE|DICT|INTERRES
   128   64  127 1    
   129   65   66 2    
@<TRIPOS>SUBSTRUCTURE
     1 UNK         1 GROUP             0       ****    0 ROOT    
