@<TRIPOS>MOLECULE
3R135
127   129    1
SMALL
USER_CHARGES


@<TRIPOS>ATOM
      1 CA        -81.8634   23.5587  -71.8307 C.3       0 UNK        -0.1998 
      2 C         -82.9776   24.5841  -71.6291 C.2       0 UNK         0.4909 
      3 O         -84.0145   24.2271  -71.0733 O.2       0 UNK        -0.5240 
      4 N         -82.8459   25.8533  -72.0487 N.am      1 UNK        -0.4739 
      5 CA        -81.7173   26.5115  -72.7316 C.3       1 UNK         0.0864 
      6 C6        -80.4065   26.5610  -71.8946 C.3       11 UNK        -0.0881 
      7 S7        -80.6224   27.5460  -70.3730 S.3       11 UNK        -0.2682 
      8 C8        -78.8952   27.7867  -69.8198 C.3       11 UNK         0.0289 
      9 C9        -77.9831   28.5317  -70.7977 C.ar      11 UNK        -0.0687 
     10 C10       -78.4806   29.4361  -71.7447 C.ar      11 UNK        -0.0823 
     11 C11       -77.6250   30.0545  -72.6602 C.ar      11 UNK        -0.0830 
     12 C12       -76.2512   29.8100  -72.5922 C.ar      11 UNK        -0.1021 
     13 C13       -75.7364   28.9212  -71.6463 C.ar      11 UNK        -0.0753 
     14 C14       -76.6058   28.2914  -70.7506 C.ar      11 UNK        -0.0933 
     15 C15       -74.2582   28.5666  -71.6505 C.3       11 UNK         0.0166 
     16 S16       -73.2431   29.6628  -70.6158 S.3       11 UNK        -0.2615 
     17 C17       -73.0395   31.1593  -71.6498 C.3       11 UNK        -0.0865 
     18 CA        -71.8582   31.1291  -72.6616 C.3       10 UNK         0.0862 
     19 C         -70.4764   30.8594  -71.9909 C.2       10 UNK         0.5551 
     20 N         -69.7443   29.8133  -72.3592 N.am      10 UNK        -0.7319 
     21 O         -70.0553   31.6281  -71.1297 O.2       10 UNK        -0.5018 
     22 N         -72.1551   30.2875  -73.8322 N.am      10 UNK        -0.4509 
     23 C         -71.5753   30.4228  -75.0326 C.2       10 UNK         0.4899 
     24 O         -70.7979   31.3376  -75.3107 O.2       10 UNK        -0.4839 
     25 CA        -71.9233   29.3663  -76.1031 C.3       9 UNK         0.0222 
     26 CB        -70.8340   29.2449  -77.1895 C.3       9 UNK        -0.1966 
     27 N         -72.2543   28.0350  -75.5729 N.am      9 UNK        -0.4218 
     28 C         -71.4820   27.2541  -74.8001 C.2       9 UNK         0.5020 
     29 O         -70.4039   27.6155  -74.3253 O.2       9 UNK        -0.5274 
     30 CA        -71.9858   25.8339  -74.4911 C.3       8 UNK         0.0270 
     31 CB        -72.7116   25.7823  -73.1400 C.3       8 UNK        -0.1976 
     32 N         -72.8581   25.2811  -75.5309 N.am      8 UNK        -0.4313 
     33 C         -72.4071   24.7192  -76.6608 C.2       8 UNK         0.5041 
     34 O         -71.2141   24.6403  -76.9585 O.2       8 UNK        -0.5577 
     35 CA        -73.4583   24.1272  -77.6140 C.3       7 UNK         0.0284 
     36 CB        -74.0310   22.8152  -77.0529 C.3       7 UNK        -0.1958 
     37 N         -74.5501   25.0550  -77.9079 N.am      7 UNK        -0.4454 
     38 C         -74.4200   26.1804  -78.6238 C.2       7 UNK         0.5089 
     39 O         -73.3639   26.5562  -79.1329 O.2       7 UNK        -0.5125 
     40 CA        -75.6848   27.0379  -78.7993 C.3       6 UNK         0.0408 
     41 CB        -76.5297   26.5275  -79.9774 C.3       6 UNK        -0.1791 
     42 N         -76.5089   27.0921  -77.5902 N.am      6 UNK        -0.4762 
     43 C         -76.1363   27.6886  -76.4486 C.2       6 UNK         0.5007 
     44 O         -75.0506   28.2462  -76.2895 O.2       6 UNK        -0.5032 
     45 CA        -77.1212   27.5960  -75.2660 C.3       5 UNK         0.0783 
     46 C46       -78.2988   28.6005  -75.3971 C.3       11 UNK        -0.0857 
     47 S47       -77.7737   30.3544  -75.4291 S.3       11 UNK        -0.2512 
     48 C48       -78.1960   30.9462  -73.7543 C.3       11 UNK         0.0225 
     49 N         -77.5929   26.2228  -75.0602 N.am      5 UNK        -0.4615 
     50 C         -76.7982   25.1715  -74.8062 C.2       4 UNK         0.5053 
     51 O         -75.5757   25.2460  -74.6880 O.2       4 UNK        -0.5105 
     52 CA        -77.4662   23.7911  -74.7204 C.3       4 UNK         0.0263 
     53 CB        -78.0846   23.5745  -73.3319 C.3       4 UNK        -0.1981 
     54 N         -78.4837   23.5705  -75.7491 N.am      4 UNK        -0.4224 
     55 C         -78.2978   23.6342  -77.0738 C.2       3 UNK         0.4895 
     56 O         -77.2161   23.8994  -77.5986 O.2       3 UNK        -0.5091 
     57 CA        -79.5257   23.3931  -77.9729 C.3       3 UNK         0.0250 
     58 CB        -79.7751   21.8867  -78.1812 C.3       3 UNK        -0.1996 
     59 N         -80.7430   24.0972  -77.5361 N.am      3 UNK        -0.4254 
     60 C         -81.4660   23.9096  -76.4223 C.2       2 UNK         0.5004 
     61 O         -81.2528   23.0200  -75.5945 O.2       2 UNK        -0.5226 
     62 CA        -82.5898   24.9267  -76.1607 C.3       2 UNK         0.0269 
     63 CB        -83.9629   24.2923  -76.4341 C.3       2 UNK        -0.1926 
     64 N         -82.5643   25.4498  -74.7897 N.am      2 UNK        -0.4687 
     65 C         -81.5129   26.0285  -74.1866 C.2       1 UNK         0.5165 
     66 O         -80.4249   26.1976  -74.7395 O.2       1 UNK        -0.5079 
     67 H67       -81.3073   23.7054  -72.7532 H         1 UNK         0.0900 
     68 H68       -82.2859   22.5551  -71.8743 H         1 UNK         0.0900 
     69 H69       -81.1687   23.5870  -70.9921 H         1 UNK         0.0900 
     70 H70       -83.6242   26.4731  -71.8701 H         1 UNK         0.2959 
     71 H71       -82.0358   27.5475  -72.8603 H         1 UNK         0.1079 
     72 H72       -79.5979   27.0069  -72.4749 H         1 UNK         0.0837 
     73 H73       -80.0588   25.5676  -71.6192 H         1 UNK         0.0837 
     74 H74       -78.9093   28.3359  -68.8777 H         1 UNK         0.0685 
     75 H75       -78.4749   26.8043  -69.5982 H         1 UNK         0.0685 
     76 H76       -79.5414   29.6357  -71.7964 H         1 UNK         0.1434 
     77 H77       -75.5941   30.2705  -73.3168 H         1 UNK         0.1329 
     78 H78       -76.2092   27.5908  -70.0282 H         1 UNK         0.1335 
     79 H79       -73.8806   28.5563  -72.6714 H         1 UNK         0.0680 
     80 H80       -74.1343   27.5513  -71.2720 H         1 UNK         0.0680 
     81 H81       -73.9720   31.3878  -72.1635 H         1 UNK         0.1032 
     82 H82       -72.8930   31.9956  -70.9638 H         1 UNK         0.1032 
     83 H83       -71.7796   32.1497  -73.0417 H         1 UNK         0.0461 
     84 H84       -68.8516   29.6595  -71.9187 H         1 UNK         0.3453 
     85 H85       -70.0703   29.1689  -73.0715 H         1 UNK         0.3453 
     86 H86       -72.7573   29.4951  -73.6777 H         1 UNK         0.2984 
     87 H87       -72.8283   29.7293  -76.5913 H         1 UNK         0.0554 
     88 H88       -71.1161   28.5179  -77.9517 H         1 UNK         0.0847 
     89 H89       -69.8774   28.9348  -76.7677 H         1 UNK         0.0847 
     90 H90       -70.6741   30.1969  -77.6972 H         1 UNK         0.0847 
     91 H91       -73.1646   27.6874  -75.8600 H         1 UNK         0.3141 
     92 H92       -71.1007   25.1992  -74.4075 H         1 UNK         0.0743 
     93 H93       -72.8848   24.7524  -72.8277 H         1 UNK         0.0784 
     94 H94       -72.1279   26.2661  -72.3553 H         1 UNK         0.0784 
     95 H95       -73.6807   26.2749  -73.1919 H         1 UNK         0.0784 
     96 H96       -73.8603   25.2852  -75.3412 H         1 UNK         0.3213 
     97 H97       -72.9565   23.8972  -78.5566 H         1 UNK         0.0855 
     98 H98       -73.2357   22.0955  -76.8545 H         1 UNK         0.0814 
     99 H99       -74.7210   22.3507  -77.7578 H         1 UNK         0.0814 
    100 H100      -74.5680   22.9745  -76.1177 H         1 UNK         0.0814 
    101 H101      -75.4776   24.7931  -77.5842 H         1 UNK         0.3105 
    102 H102      -75.3644   28.0563  -79.0298 H         1 UNK         0.0547 
    103 H103      -75.9420   26.5061  -80.8961 H         1 UNK         0.0837 
    104 H104      -76.8988   25.5159  -79.8049 H         1 UNK         0.0837 
    105 H105      -77.3890   27.1728  -80.1595 H         1 UNK         0.0837 
    106 H106      -77.3910   26.6014  -77.6135 H         1 UNK         0.3020 
    107 H107      -76.5535   27.8512  -74.3714 H         1 UNK         0.1245 
    108 H108      -78.9968   28.4636  -74.5706 H         1 UNK         0.0781 
    109 H109      -78.8744   28.3978  -76.3019 H         1 UNK         0.0781 
    110 H110      -79.2817   31.0177  -73.6733 H         1 UNK         0.0836 
    111 H111      -77.8108   31.9588  -73.6274 H         1 UNK         0.0836 
    112 H112      -78.6001   26.0814  -75.0979 H         1 UNK         0.3022 
    113 H113      -76.6884   23.0397  -74.8673 H         1 UNK         0.0747 
    114 H114      -78.4647   22.5589  -73.2202 H         1 UNK         0.0793 
    115 H115      -77.3477   23.7351  -72.5436 H         1 UNK         0.0793 
    116 H116      -78.9101   24.2619  -73.1554 H         1 UNK         0.0793 
    117 H117      -79.4250   23.3489  -75.4326 H         1 UNK         0.3047 
    118 H118      -79.2782   23.8164  -78.9480 H         1 UNK         0.0822 
    119 H119      -80.0036   21.3735  -77.2468 H         1 UNK         0.0807 
    120 H120      -78.8939   21.4039  -78.6059 H         1 UNK         0.0807 
    121 H121      -80.6023   21.7137  -78.8695 H         1 UNK         0.0807 
    122 H122      -81.0055   24.8726  -78.1293 H         1 UNK         0.2946 
    123 H123      -82.4598   25.7775  -76.8330 H         1 UNK         0.1144 
    124 H124      -84.0215   23.9108  -77.4545 H         1 UNK         0.0793 
    125 H125      -84.1603   23.4559  -75.7620 H         1 UNK         0.0793 
    126 H126      -84.7681   25.0175  -76.3145 H         1 UNK         0.0793 
    127 H127      -83.4111   25.3405  -74.2506 H         1 UNK         0.2896 
@<TRIPOS>BOND
     1    1    2 1    
     2    1   67 1    
     3    1   68 1    
     4    1   69 1    
     5    2    3 2    
     6    2    4 am   BACKBONE|DICT|INTERRES
     7    4    5 1    
     8    4   70 1    
     9    5    6 1    
    10    5   65 1    
    11    5   71 1    
    12    6    7 1    
    13    6   72 1    
    14    6   73 1    
    15    7    8 1    
    16    8    9 1    
    17    8   74 1    
    18    8   75 1    
    19    9   10 ar   
    20    9   14 ar   
    21   10   11 ar   
    22   10   76 1    
    23   11   12 ar   
    24   11   48 1    
    25   12   13 ar   
    26   12   77 1    
    27   13   14 ar   
    28   13   15 1    
    29   14   78 1    
    30   15   16 1    
    31   15   79 1    
    32   15   80 1    
    33   16   17 1    
    34   17   18 1    
    35   17   81 1    
    36   17   82 1    
    37   18   19 1    
    38   18   22 1    
    39   18   83 1    
    40   19   20 am   BACKBONE|DICT|INTERRES
    41   19   21 2    
    42   20   84 1    
    43   20   85 1    
    44   22   23 am   BACKBONE|DICT|INTERRES
    45   22   86 1    
    46   23   24 2    
    47   23   25 1    
    48   25   26 1    
    49   25   27 1    
    50   25   87 1    
    51   26   88 1    
    52   26   89 1    
    53   26   90 1    
    54   27   28 am   BACKBONE|DICT|INTERRES
    55   27   91 1    
    56   28   29 2    
    57   28   30 1    
    58   30   31 1    
    59   30   32 1    
    60   30   92 1    
    61   31   93 1    
    62   31   94 1    
    63   31   95 1    
    64   32   33 am   BACKBONE|DICT|INTERRES
    65   32   96 1    
    66   33   34 2    
    67   33   35 1    
    68   35   36 1    
    69   35   37 1    
    70   35   97 1    
    71   36   98 1    
    72   36   99 1    
    73   36  100 1    
    74   37   38 am   BACKBONE|DICT|INTERRES
    75   37  101 1    
    76   38   39 2    
    77   38   40 1    
    78   40   41 1    
    79   40   42 1    
    80   40  102 1    
    81   41  103 1    
    82   41  104 1    
    83   41  105 1    
    84   42   43 am   BACKBONE|DICT|INTERRES
    85   42  106 1    
    86   43   44 2    
    87   43   45 1    
    88   45   46 1    
    89   45   49 1    
    90   45  107 1    
    91   46   47 1    
    92   46  108 1    
    93   46  109 1    
    94   47   48 1    
    95   48  110 1    
    96   48  111 1    
    97   49   50 am   BACKBONE|DICT|INTERRES
    98   49  112 1    
    99   50   51 2    
   100   50   52 1    
   101   52   53 1    
   102   52   54 1    
   103   52  113 1    
   104   53  114 1    
   105   53  115 1    
   106   53  116 1    
   107   54   55 am   BACKBONE|DICT|INTERRES
   108   54  117 1    
   109   55   56 2    
   110   55   57 1    
   111   57   58 1    
   112   57   59 1    
   113   57  118 1    
   114   58  119 1    
   115   58  120 1    
   116   58  121 1    
   117   59   60 am   BACKBONE|DICT|INTERRES
   118   59  122 1    
   119   60   61 2    
   120   60   62 1    
   121   62   63 1    
   122   62   64 1    
   123   62  123 1    
   124   63  124 1    
   125   63  125 1    
   126   63  126 1    
   127   64   65 am   BACKBONE|DICT|INTERRES
   128   64  127 1    
   129   65   66 2    
@<TRIPOS>SUBSTRUCTURE
     1 UNK         1 GROUP             0       ****    0 ROOT    
