@<TRIPOS>MOLECULE
3R135
127   129    1
SMALL
USER_CHARGES


@<TRIPOS>ATOM
      1 CA        -83.6369   27.6866  -70.5395 C.3       0 UNK        -0.1998 
      2 C         -83.9948   27.5182  -72.0084 C.2       0 UNK         0.4909 
      3 O         -85.1008   27.0789  -72.3243 O.2       0 UNK        -0.5240 
      4 N         -83.0661   27.8667  -72.9084 N.am      1 UNK        -0.4739 
      5 CA        -83.2120   27.7404  -74.3648 C.3       1 UNK         0.0864 
      6 C6        -82.1346   28.5638  -75.1213 C.3       11 UNK        -0.0881 
      7 S7        -80.4148   28.1005  -74.6969 S.3       11 UNK        -0.2682 
      8 C8        -79.9066   29.5080  -73.6549 C.3       11 UNK         0.0289 
      9 C9        -78.6851   29.1754  -72.8075 C.ar      11 UNK        -0.0687 
     10 C10       -78.7510   28.1352  -71.8753 C.ar      11 UNK        -0.0823 
     11 C11       -77.6481   27.8230  -71.0769 C.ar      11 UNK        -0.0830 
     12 C12       -76.4831   28.5833  -71.1896 C.ar      11 UNK        -0.1021 
     13 C13       -76.4013   29.6294  -72.1126 C.ar      11 UNK        -0.0753 
     14 C14       -77.5035   29.9180  -72.9262 C.ar      11 UNK        -0.0933 
     15 C15       -75.1215   30.4481  -72.1995 C.3       11 UNK         0.0166 
     16 S16       -73.7530   29.4567  -72.8739 S.3       11 UNK        -0.2615 
     17 C17       -72.2859   30.3868  -72.3035 C.3       11 UNK        -0.0865 
     18 CA        -71.5396   31.1359  -73.4392 C.3       10 UNK         0.0862 
     19 C         -70.2754   31.8485  -72.8743 C.2       10 UNK         0.5551 
     20 N         -69.0651   31.4152  -73.2054 N.am      10 UNK        -0.7319 
     21 O         -70.4005   32.8095  -72.1194 O.2       10 UNK        -0.5018 
     22 N         -71.3066   30.2547  -74.5931 N.am      10 UNK        -0.4509 
     23 C         -70.8909   30.6272  -75.8089 C.2       10 UNK         0.4899 
     24 O         -70.5970   31.7856  -76.1060 O.2       10 UNK        -0.4839 
     25 CA        -70.8407   29.5354  -76.8945 C.3       9 UNK         0.0222 
     26 CB        -69.5456   29.5942  -77.7322 C.3       9 UNK        -0.1966 
     27 N         -71.1165   28.1790  -76.3968 N.am      9 UNK        -0.4218 
     28 C         -70.3263   27.3785  -75.6608 C.2       9 UNK         0.5020 
     29 O         -69.2017   27.6988  -75.2750 O.2       9 UNK        -0.5274 
     30 CA        -70.8826   25.9966  -75.2479 C.3       8 UNK         0.0270 
     31 CB        -71.1259   25.9529  -73.7296 C.3       8 UNK        -0.1976 
     32 N         -72.1251   25.6245  -75.9310 N.am      8 UNK        -0.4313 
     33 C         -72.2382   25.3427  -77.2379 C.2       8 UNK         0.5041 
     34 O         -71.2703   25.1957  -77.9848 O.2       8 UNK        -0.5577 
     35 CA        -73.6603   25.2631  -77.8335 C.3       7 UNK         0.0284 
     36 CB        -74.0172   23.8124  -78.1942 C.3       7 UNK        -0.1958 
     37 N         -74.7180   25.8279  -76.9848 N.am      7 UNK        -0.4454 
     38 C         -74.7825   27.0917  -76.5403 C.2       7 UNK         0.5089 
     39 O         -73.9554   27.9560  -76.8318 O.2       7 UNK        -0.5125 
     40 CA        -75.9264   27.4437  -75.5739 C.3       6 UNK         0.0408 
     41 CB        -77.0591   28.1492  -76.3319 C.3       6 UNK        -0.1791 
     42 N         -76.4567   26.2954  -74.8258 N.am      6 UNK        -0.4762 
     43 C         -75.7670   25.5873  -73.9147 C.2       6 UNK         0.5007 
     44 O         -74.5917   25.8152  -73.6259 O.2       6 UNK        -0.5032 
     45 CA        -76.4831   24.3693  -73.2869 C.3       5 UNK         0.0783 
     46 C46       -77.4896   24.7522  -72.1751 C.3       11 UNK        -0.0857 
     47 S47       -76.6735   25.2622  -70.6256 S.3       11 UNK        -0.2512 
     48 C48       -77.7108   26.6632  -70.0943 C.3       11 UNK         0.0225 
     49 N         -77.1361   23.5656  -74.3203 N.am      5 UNK        -0.4615 
     50 C         -76.4974   22.7626  -75.1806 C.2       4 UNK         0.5053 
     51 O         -75.2921   22.5242  -75.1267 O.2       4 UNK        -0.5105 
     52 CA        -77.3448   22.1355  -76.3033 C.3       4 UNK         0.0263 
     53 CB        -77.8075   20.7255  -75.9047 C.3       4 UNK        -0.1981 
     54 N         -78.5148   22.9432  -76.6645 N.am      4 UNK        -0.4224 
     55 C         -78.4732   24.1709  -77.1970 C.2       3 UNK         0.4895 
     56 O         -77.4261   24.7445  -77.4921 O.2       3 UNK        -0.5091 
     57 CA        -79.8082   24.9138  -77.3746 C.3       3 UNK         0.0250 
     58 CB        -80.5162   24.4898  -78.6755 C.3       3 UNK        -0.1996 
     59 N         -80.7054   24.8360  -76.2102 N.am      3 UNK        -0.4254 
     60 C         -81.3689   23.7770  -75.7177 C.2       2 UNK         0.5004 
     61 O         -81.2792   22.6399  -76.1823 O.2       2 UNK        -0.5226 
     62 CA        -82.2465   24.0016  -74.4700 C.3       2 UNK         0.0269 
     63 CB        -81.6244   23.3031  -73.2485 C.3       2 UNK        -0.1926 
     64 N         -82.4645   25.4130  -74.1392 N.am      2 UNK        -0.4687 
     65 C         -83.2246   26.2701  -74.8375 C.2       1 UNK         0.5165 
     66 O         -83.8897   25.9485  -75.8227 O.2       1 UNK        -0.5079 
     67 H67       -83.6835   26.7247  -70.0297 H         1 UNK         0.0900 
     68 H68       -84.3423   28.3626  -70.0569 H         1 UNK         0.0900 
     69 H69       -82.6341   28.0925  -70.4069 H         1 UNK         0.0900 
     70 H70       -82.1785   28.2279  -72.5927 H         1 UNK         0.2959 
     71 H71       -84.1877   28.1543  -74.6305 H         1 UNK         0.1079 
     72 H72       -82.2814   29.6266  -74.9228 H         1 UNK         0.0837 
     73 H73       -82.2618   28.4562  -76.2005 H         1 UNK         0.0837 
     74 H74       -79.7150   30.3697  -74.2961 H         1 UNK         0.0685 
     75 H75       -80.7228   29.7918  -72.9895 H         1 UNK         0.0685 
     76 H76       -79.6607   27.5585  -71.7833 H         1 UNK         0.1434 
     77 H77       -75.6285   28.3486  -70.5694 H         1 UNK         0.1329 
     78 H78       -77.4454   30.7274  -73.6408 H         1 UNK         0.1335 
     79 H79       -75.2614   31.3353  -72.8188 H         1 UNK         0.0680 
     80 H80       -74.8680   30.8005  -71.1988 H         1 UNK         0.0680 
     81 H81       -71.6153   29.6701  -71.8252 H         1 UNK         0.1032 
     82 H82       -72.5769   31.0865  -71.5178 H         1 UNK         0.1032 
     83 H83       -72.1993   31.9308  -73.7921 H         1 UNK         0.0461 
     84 H84       -68.9610   30.6285  -73.8270 H         1 UNK         0.3453 
     85 H85       -68.2518   31.8825  -72.8371 H         1 UNK         0.3453 
     86 H86       -71.5489   29.2857  -74.4541 H         1 UNK         0.2984 
     87 H87       -71.6679   29.7603  -77.5692 H         1 UNK         0.0554 
     88 H88       -69.5311   28.8176  -78.4969 H         1 UNK         0.0847 
     89 H89       -68.6542   29.4773  -77.1158 H         1 UNK         0.0847 
     90 H90       -69.4565   30.5529  -78.2445 H         1 UNK         0.0847 
     91 H91       -72.0591   27.8536  -76.6010 H         1 UNK         0.3141 
     92 H92       -70.1229   25.2533  -75.4979 H         1 UNK         0.0743 
     93 H93       -71.8790   26.6797  -73.4205 H         1 UNK         0.0784 
     94 H94       -71.4636   24.9670  -73.4093 H         1 UNK         0.0784 
     95 H95       -70.2115   26.1757  -73.1779 H         1 UNK         0.0784 
     96 H96       -72.9759   25.7027  -75.3867 H         1 UNK         0.3213 
     97 H97       -73.6488   25.8479  -78.7555 H         1 UNK         0.0855 
     98 H98       -74.0037   23.1654  -77.3176 H         1 UNK         0.0814 
     99 H99       -73.3025   23.4023  -78.9090 H         1 UNK         0.0814 
    100 H100      -75.0052   23.7445  -78.6502 H         1 UNK         0.0814 
    101 H101      -75.5024   25.2220  -76.7718 H         1 UNK         0.3105 
    102 H102      -75.5242   28.1500  -74.8463 H         1 UNK         0.0547 
    103 H103      -77.5876   27.4715  -77.0020 H         1 UNK         0.0837 
    104 H104      -77.7795   28.5812  -75.6416 H         1 UNK         0.0837 
    105 H105      -76.6732   28.9708  -76.9370 H         1 UNK         0.0837 
    106 H106      -77.4043   26.0234  -75.0370 H         1 UNK         0.3020 
    107 H107      -75.7080   23.7458  -72.8335 H         1 UNK         0.1245 
    108 H108      -78.1818   25.5172  -72.5267 H         1 UNK         0.0781 
    109 H109      -78.1090   23.8894  -71.9244 H         1 UNK         0.0781 
    110 H110      -78.7373   26.3191  -69.9585 H         1 UNK         0.0836 
    111 H111      -77.3711   27.0033  -69.1149 H         1 UNK         0.0836 
    112 H112      -78.1316   23.6817  -74.4292 H         1 UNK         0.3022 
    113 H113      -76.7087   22.0542  -77.1873 H         1 UNK         0.0747 
    114 H114      -78.3391   20.2373  -76.7218 H         1 UNK         0.0793 
    115 H115      -76.9566   20.0924  -75.6491 H         1 UNK         0.0793 
    116 H116      -78.4709   20.7477  -75.0390 H         1 UNK         0.0793 
    117 H117      -79.4354   22.5572  -76.4646 H         1 UNK         0.3047 
    118 H118      -79.5606   25.9718  -77.4757 H         1 UNK         0.0822 
    119 H119      -81.4292   25.0639  -78.8337 H         1 UNK         0.0807 
    120 H120      -80.7815   23.4322  -78.6745 H         1 UNK         0.0807 
    121 H121      -79.8726   24.6596  -79.5398 H         1 UNK         0.0807 
    122 H122      -80.8316   25.7103  -75.7174 H         1 UNK         0.2946 
    123 H123      -83.2168   23.5440  -74.6763 H         1 UNK         0.1144 
    124 H124      -82.2712   23.3832  -72.3746 H         1 UNK         0.0793 
    125 H125      -80.6544   23.7283  -72.9885 H         1 UNK         0.0793 
    126 H126      -81.4740   22.2392  -73.4385 H         1 UNK         0.0793 
    127 H127      -81.9641   25.7762  -73.3412 H         1 UNK         0.2896 
@<TRIPOS>BOND
     1    1    2 1    
     2    1   67 1    
     3    1   68 1    
     4    1   69 1    
     5    2    3 2    
     6    2    4 am   BACKBONE|DICT|INTERRES
     7    4    5 1    
     8    4   70 1    
     9    5    6 1    
    10    5   65 1    
    11    5   71 1    
    12    6    7 1    
    13    6   72 1    
    14    6   73 1    
    15    7    8 1    
    16    8    9 1    
    17    8   74 1    
    18    8   75 1    
    19    9   10 ar   
    20    9   14 ar   
    21   10   11 ar   
    22   10   76 1    
    23   11   12 ar   
    24   11   48 1    
    25   12   13 ar   
    26   12   77 1    
    27   13   14 ar   
    28   13   15 1    
    29   14   78 1    
    30   15   16 1    
    31   15   79 1    
    32   15   80 1    
    33   16   17 1    
    34   17   18 1    
    35   17   81 1    
    36   17   82 1    
    37   18   19 1    
    38   18   22 1    
    39   18   83 1    
    40   19   20 am   BACKBONE|DICT|INTERRES
    41   19   21 2    
    42   20   84 1    
    43   20   85 1    
    44   22   23 am   BACKBONE|DICT|INTERRES
    45   22   86 1    
    46   23   24 2    
    47   23   25 1    
    48   25   26 1    
    49   25   27 1    
    50   25   87 1    
    51   26   88 1    
    52   26   89 1    
    53   26   90 1    
    54   27   28 am   BACKBONE|DICT|INTERRES
    55   27   91 1    
    56   28   29 2    
    57   28   30 1    
    58   30   31 1    
    59   30   32 1    
    60   30   92 1    
    61   31   93 1    
    62   31   94 1    
    63   31   95 1    
    64   32   33 am   BACKBONE|DICT|INTERRES
    65   32   96 1    
    66   33   34 2    
    67   33   35 1    
    68   35   36 1    
    69   35   37 1    
    70   35   97 1    
    71   36   98 1    
    72   36   99 1    
    73   36  100 1    
    74   37   38 am   BACKBONE|DICT|INTERRES
    75   37  101 1    
    76   38   39 2    
    77   38   40 1    
    78   40   41 1    
    79   40   42 1    
    80   40  102 1    
    81   41  103 1    
    82   41  104 1    
    83   41  105 1    
    84   42   43 am   BACKBONE|DICT|INTERRES
    85   42  106 1    
    86   43   44 2    
    87   43   45 1    
    88   45   46 1    
    89   45   49 1    
    90   45  107 1    
    91   46   47 1    
    92   46  108 1    
    93   46  109 1    
    94   47   48 1    
    95   48  110 1    
    96   48  111 1    
    97   49   50 am   BACKBONE|DICT|INTERRES
    98   49  112 1    
    99   50   51 2    
   100   50   52 1    
   101   52   53 1    
   102   52   54 1    
   103   52  113 1    
   104   53  114 1    
   105   53  115 1    
   106   53  116 1    
   107   54   55 am   BACKBONE|DICT|INTERRES
   108   54  117 1    
   109   55   56 2    
   110   55   57 1    
   111   57   58 1    
   112   57   59 1    
   113   57  118 1    
   114   58  119 1    
   115   58  120 1    
   116   58  121 1    
   117   59   60 am   BACKBONE|DICT|INTERRES
   118   59  122 1    
   119   60   61 2    
   120   60   62 1    
   121   62   63 1    
   122   62   64 1    
   123   62  123 1    
   124   63  124 1    
   125   63  125 1    
   126   63  126 1    
   127   64   65 am   BACKBONE|DICT|INTERRES
   128   64  127 1    
   129   65   66 2    
@<TRIPOS>SUBSTRUCTURE
     1 UNK         1 GROUP             0       ****    0 ROOT    
