@<TRIPOS>MOLECULE
3R135
127   129    1
SMALL
USER_CHARGES


@<TRIPOS>ATOM
      1 CA        -82.1793   22.6200  -68.8783 C.3       0 UNK        -0.1998 
      2 C         -82.5388   23.7130  -69.8735 C.2       0 UNK         0.4909 
      3 O         -83.6698   23.7509  -70.3602 O.2       0 UNK        -0.5240 
      4 N         -81.5891   24.6083  -70.1702 N.am      1 UNK        -0.4739 
      5 CA        -81.7183   25.6790  -71.1635 C.3       1 UNK         0.0864 
      6 C6        -80.6557   26.7944  -70.9689 C.3       11 UNK        -0.0881 
      7 S7        -78.9590   26.2016  -70.6261 S.3       11 UNK        -0.2682 
      8 C8        -78.1536   26.3997  -72.2408 C.3       11 UNK         0.0289 
      9 C9        -77.8667   27.8533  -72.5763 C.ar      11 UNK        -0.0687 
     10 C10       -78.6660   28.5225  -73.5052 C.ar      11 UNK        -0.0823 
     11 C11       -78.3483   29.8219  -73.9070 C.ar      11 UNK        -0.0830 
     12 C12       -77.2610   30.4768  -73.3234 C.ar      11 UNK        -0.1021 
     13 C13       -76.4657   29.8250  -72.3764 C.ar      11 UNK        -0.0753 
     14 C14       -76.7688   28.5092  -72.0108 C.ar      11 UNK        -0.0933 
     15 C15       -75.2646   30.5380  -71.7756 C.3       11 UNK         0.0166 
     16 S16       -73.9283   30.6954  -72.9974 S.3       11 UNK        -0.2615 
     17 C17       -72.6315   31.4822  -71.9871 C.3       11 UNK        -0.0865 
     18 CA        -71.3015   31.6412  -72.7673 C.3       10 UNK         0.0862 
     19 C         -70.2570   32.4113  -71.9139 C.2       10 UNK         0.5551 
     20 N         -70.2164   33.7317  -72.0274 N.am      10 UNK        -0.7319 
     21 O         -69.5196   31.8281  -71.1209 O.2       10 UNK        -0.5018 
     22 N         -70.8015   30.3415  -73.2379 N.am      10 UNK        -0.4509 
     23 C         -69.7972   30.1617  -74.1043 C.2       10 UNK         0.4899 
     24 O         -69.1889   31.0824  -74.6514 O.2       10 UNK        -0.4839 
     25 CA        -69.3951   28.7092  -74.4213 C.3       9 UNK         0.0222 
     26 CB        -68.1150   28.3331  -73.6566 C.3       9 UNK        -0.1966 
     27 N         -70.4421   27.7271  -74.1165 N.am      9 UNK        -0.4218 
     28 C         -71.5336   27.5181  -74.8653 C.2       9 UNK         0.5020 
     29 O         -71.7925   28.1415  -75.8975 O.2       9 UNK        -0.5274 
     30 CA        -72.5082   26.4441  -74.3497 C.3       8 UNK         0.0270 
     31 CB        -73.6558   27.0863  -73.5521 C.3       8 UNK        -0.1976 
     32 N         -73.0772   25.6338  -75.4270 N.am      8 UNK        -0.4313 
     33 C         -72.3868   24.8162  -76.2333 C.2       8 UNK         0.5041 
     34 O         -71.1684   24.6475  -76.1599 O.2       8 UNK        -0.5577 
     35 CA        -73.1869   24.0255  -77.2794 C.3       7 UNK         0.0284 
     36 CB        -73.7568   22.7409  -76.6536 C.3       7 UNK        -0.1958 
     37 N         -74.2851   24.8090  -77.8501 N.am      7 UNK        -0.4454 
     38 C         -74.2387   25.4431  -79.0296 C.2       7 UNK         0.5089 
     39 O         -73.2419   25.4672  -79.7526 O.2       7 UNK        -0.5125 
     40 CA        -75.5234   26.1430  -79.5163 C.3       6 UNK         0.0408 
     41 CB        -76.2176   25.2902  -80.5903 C.3       6 UNK        -0.1791 
     42 N         -76.4805   26.4193  -78.4429 N.am      6 UNK        -0.4762 
     43 C         -76.3779   27.4455  -77.5833 C.2       6 UNK         0.5007 
     44 O         -75.4877   28.2932  -77.6441 O.2       6 UNK        -0.5032 
     45 CA        -77.4252   27.5169  -76.4471 C.3       5 UNK         0.0783 
     46 C46       -78.6366   28.3979  -76.8645 C.3       11 UNK        -0.0857 
     47 S47       -78.3509   30.1871  -76.6390 S.3       11 UNK        -0.2512 
     48 C48       -79.1364   30.4910  -75.0208 C.3       11 UNK         0.0225 
     49 N         -77.8693   26.1905  -75.9876 N.am      5 UNK        -0.4615 
     50 C         -77.0671   25.1946  -75.5767 C.2       4 UNK         0.5053 
     51 O         -75.8600   25.3383  -75.3964 O.2       4 UNK        -0.5105 
     52 CA        -77.6622   23.7776  -75.4338 C.3       4 UNK         0.0263 
     53 CB        -77.6379   23.2812  -73.9795 C.3       4 UNK        -0.1981 
     54 N         -79.0097   23.6292  -75.9876 N.am      4 UNK        -0.4224 
     55 C         -79.3259   23.7847  -77.2817 C.2       3 UNK         0.4895 
     56 O         -78.4905   23.9865  -78.1651 O.2       3 UNK        -0.5091 
     57 CA        -80.8188   23.7801  -77.6545 C.3       3 UNK         0.0250 
     58 CB        -81.2019   22.4360  -78.2946 C.3       3 UNK        -0.1996 
     59 N         -81.7530   24.0719  -76.5580 N.am      3 UNK        -0.4254 
     60 C         -81.7652   25.1607  -75.7724 C.2       2 UNK         0.5004 
     61 O         -80.8993   26.0374  -75.8047 O.2       2 UNK        -0.5226 
     62 CA        -82.9577   25.3135  -74.8053 C.3       2 UNK         0.0269 
     63 CB        -83.8644   24.0627  -74.7145 C.3       2 UNK        -0.1926 
     64 N         -82.5719   25.7493  -73.4566 N.am      2 UNK        -0.4687 
     65 C         -81.7542   25.1148  -72.6029 C.2       1 UNK         0.5165 
     66 O         -81.0823   24.1220  -72.8976 O.2       1 UNK        -0.5079 
     67 H67       -82.8460   22.6616  -68.0174 H         1 UNK         0.0900 
     68 H68       -82.2834   21.6404  -69.3439 H         1 UNK         0.0900 
     69 H69       -81.1549   22.7174  -68.5190 H         1 UNK         0.0900 
     70 H70       -80.6670   24.5173  -69.7665 H         1 UNK         0.2959 
     71 H71       -82.6929   26.1417  -70.9895 H         1 UNK         0.1079 
     72 H72       -80.6560   27.4889  -71.8095 H         1 UNK         0.0837 
     73 H73       -80.9455   27.3999  -70.1088 H         1 UNK         0.0837 
     74 H74       -77.2179   25.8386  -72.2423 H         1 UNK         0.0685 
     75 H75       -78.7832   25.9530  -73.0106 H         1 UNK         0.0685 
     76 H76       -79.5019   28.0083  -73.9598 H         1 UNK         0.1434 
     77 H77       -77.0069   31.4811  -73.6347 H         1 UNK         0.1329 
     78 H78       -76.1443   27.9883  -71.2980 H         1 UNK         0.1335 
     79 H79       -74.8952   29.9988  -70.9018 H         1 UNK         0.0680 
     80 H80       -75.5618   31.5295  -71.4304 H         1 UNK         0.0680 
     81 H81       -73.0015   32.4561  -71.6601 H         1 UNK         0.1032 
     82 H82       -72.4770   30.8915  -71.0818 H         1 UNK         0.1032 
     83 H83       -71.5068   32.2394  -73.6578 H         1 UNK         0.0461 
     84 H84       -70.8236   34.2190  -72.6683 H         1 UNK         0.3453 
     85 H85       -69.5567   34.2518  -71.4700 H         1 UNK         0.3453 
     86 H86       -71.2448   29.5282  -72.8408 H         1 UNK         0.2984 
     87 H87       -69.1773   28.6566  -75.4903 H         1 UNK         0.0554 
     88 H88       -67.3035   29.0236  -73.8914 H         1 UNK         0.0847 
     89 H89       -67.7717   27.3329  -73.9217 H         1 UNK         0.0847 
     90 H90       -68.2642   28.3641  -72.5764 H         1 UNK         0.0847 
     91 H91       -70.3085   27.1678  -73.2857 H         1 UNK         0.3141 
     92 H92       -71.9658   25.7665  -73.6871 H         1 UNK         0.0743 
     93 H93       -74.2493   27.7594  -74.1734 H         1 UNK         0.0784 
     94 H94       -74.3297   26.3323  -73.1445 H         1 UNK         0.0784 
     95 H95       -73.2755   27.6674  -72.7114 H         1 UNK         0.0784 
     96 H96       -74.0903   25.6661  -75.5220 H         1 UNK         0.3213 
     97 H97       -72.4939   23.7296  -78.0704 H         1 UNK         0.0855 
     98 H98       -74.4372   22.9562  -75.8289 H         1 UNK         0.0814 
     99 H99       -72.9564   22.1140  -76.2581 H         1 UNK         0.0814 
    100 H100      -74.2986   22.1472  -77.3900 H         1 UNK         0.0814 
    101 H101      -75.1185   24.9033  -77.2837 H         1 UNK         0.3105 
    102 H102      -75.2288   27.0888  -79.9761 H         1 UNK         0.0547 
    103 H103      -75.5467   25.0930  -81.4275 H         1 UNK         0.0837 
    104 H104      -76.5375   24.3251  -80.1949 H         1 UNK         0.0837 
    105 H105      -77.0958   25.7951  -80.9927 H         1 UNK         0.0837 
    106 H106      -77.2339   25.7497  -78.3231 H         1 UNK         0.3020 
    107 H107      -76.9199   27.9784  -75.5961 H         1 UNK         0.1245 
    108 H108      -79.5212   28.1370  -76.2859 H         1 UNK         0.0781 
    109 H109      -78.9217   28.2146  -77.9025 H         1 UNK         0.0781 
    110 H110      -80.1684   30.1365  -75.0340 H         1 UNK         0.0836 
    111 H111      -79.1857   31.5668  -74.8459 H         1 UNK         0.0836 
    112 H112      -78.8639   26.0040  -76.0696 H         1 UNK         0.3022 
    113 H113      -77.0058   23.1224  -76.0101 H         1 UNK         0.0747 
    114 H114      -77.7967   22.2037  -73.9343 H         1 UNK         0.0793 
    115 H115      -76.6761   23.4829  -73.5055 H         1 UNK         0.0793 
    116 H116      -78.4113   23.7481  -73.3722 H         1 UNK         0.0793 
    117 H117      -79.7625   23.5019  -75.3247 H         1 UNK         0.3047 
    118 H118      -80.9541   24.5639  -78.4026 H         1 UNK         0.0822 
    119 H119      -82.2210   22.4548  -78.6815 H         1 UNK         0.0807 
    120 H120      -81.1266   21.6139  -77.5817 H         1 UNK         0.0807 
    121 H121      -80.5454   22.2004  -79.1338 H         1 UNK         0.0807 
    122 H122      -82.5023   23.4066  -76.4332 H         1 UNK         0.2946 
    123 H123      -83.5609   26.1219  -75.2222 H         1 UNK         0.1144 
    124 H124      -84.6949   24.2326  -74.0288 H         1 UNK         0.0793 
    125 H125      -83.3208   23.1874  -74.3557 H         1 UNK         0.0793 
    126 H126      -84.3054   23.8138  -75.6807 H         1 UNK         0.0793 
    127 H127      -83.0369   26.5866  -73.1338 H         1 UNK         0.2896 
@<TRIPOS>BOND
     1    1    2 1    
     2    1   67 1    
     3    1   68 1    
     4    1   69 1    
     5    2    3 2    
     6    2    4 am   BACKBONE|DICT|INTERRES
     7    4    5 1    
     8    4   70 1    
     9    5    6 1    
    10    5   65 1    
    11    5   71 1    
    12    6    7 1    
    13    6   72 1    
    14    6   73 1    
    15    7    8 1    
    16    8    9 1    
    17    8   74 1    
    18    8   75 1    
    19    9   10 ar   
    20    9   14 ar   
    21   10   11 ar   
    22   10   76 1    
    23   11   12 ar   
    24   11   48 1    
    25   12   13 ar   
    26   12   77 1    
    27   13   14 ar   
    28   13   15 1    
    29   14   78 1    
    30   15   16 1    
    31   15   79 1    
    32   15   80 1    
    33   16   17 1    
    34   17   18 1    
    35   17   81 1    
    36   17   82 1    
    37   18   19 1    
    38   18   22 1    
    39   18   83 1    
    40   19   20 am   BACKBONE|DICT|INTERRES
    41   19   21 2    
    42   20   84 1    
    43   20   85 1    
    44   22   23 am   BACKBONE|DICT|INTERRES
    45   22   86 1    
    46   23   24 2    
    47   23   25 1    
    48   25   26 1    
    49   25   27 1    
    50   25   87 1    
    51   26   88 1    
    52   26   89 1    
    53   26   90 1    
    54   27   28 am   BACKBONE|DICT|INTERRES
    55   27   91 1    
    56   28   29 2    
    57   28   30 1    
    58   30   31 1    
    59   30   32 1    
    60   30   92 1    
    61   31   93 1    
    62   31   94 1    
    63   31   95 1    
    64   32   33 am   BACKBONE|DICT|INTERRES
    65   32   96 1    
    66   33   34 2    
    67   33   35 1    
    68   35   36 1    
    69   35   37 1    
    70   35   97 1    
    71   36   98 1    
    72   36   99 1    
    73   36  100 1    
    74   37   38 am   BACKBONE|DICT|INTERRES
    75   37  101 1    
    76   38   39 2    
    77   38   40 1    
    78   40   41 1    
    79   40   42 1    
    80   40  102 1    
    81   41  103 1    
    82   41  104 1    
    83   41  105 1    
    84   42   43 am   BACKBONE|DICT|INTERRES
    85   42  106 1    
    86   43   44 2    
    87   43   45 1    
    88   45   46 1    
    89   45   49 1    
    90   45  107 1    
    91   46   47 1    
    92   46  108 1    
    93   46  109 1    
    94   47   48 1    
    95   48  110 1    
    96   48  111 1    
    97   49   50 am   BACKBONE|DICT|INTERRES
    98   49  112 1    
    99   50   51 2    
   100   50   52 1    
   101   52   53 1    
   102   52   54 1    
   103   52  113 1    
   104   53  114 1    
   105   53  115 1    
   106   53  116 1    
   107   54   55 am   BACKBONE|DICT|INTERRES
   108   54  117 1    
   109   55   56 2    
   110   55   57 1    
   111   57   58 1    
   112   57   59 1    
   113   57  118 1    
   114   58  119 1    
   115   58  120 1    
   116   58  121 1    
   117   59   60 am   BACKBONE|DICT|INTERRES
   118   59  122 1    
   119   60   61 2    
   120   60   62 1    
   121   62   63 1    
   122   62   64 1    
   123   62  123 1    
   124   63  124 1    
   125   63  125 1    
   126   63  126 1    
   127   64   65 am   BACKBONE|DICT|INTERRES
   128   64  127 1    
   129   65   66 2    
@<TRIPOS>SUBSTRUCTURE
     1 UNK         1 GROUP             0       ****    0 ROOT    
