@<TRIPOS>MOLECULE
3R135
127   129    1
SMALL
USER_CHARGES


@<TRIPOS>ATOM
      1 CA        -81.3384   27.5717  -74.6109 C.3       0 UNK        -0.1998 
      2 C         -82.2440   26.4901  -74.0361 C.2       0 UNK         0.4909 
      3 O         -83.3696   26.3328  -74.5054 O.2       0 UNK        -0.5240 
      4 N         -81.8113   25.7223  -73.0303 N.am      1 UNK        -0.4739 
      5 CA        -80.4794   25.7082  -72.4142 C.3       1 UNK         0.0864 
      6 C6        -80.5103   26.1660  -70.9336 C.3       11 UNK        -0.0881 
      7 S7        -81.2368   27.8262  -70.7085 S.3       11 UNK        -0.2682 
      8 C8        -79.8294   28.8068  -70.0940 C.3       11 UNK         0.0289 
      9 C9        -78.8779   29.2568  -71.1967 C.ar      11 UNK        -0.0687 
     10 C10       -79.3526   29.9988  -72.2833 C.ar      11 UNK        -0.0823 
     11 C11       -78.4744   30.4817  -73.2586 C.ar      11 UNK        -0.0830 
     12 C12       -77.1050   30.2245  -73.1370 C.ar      11 UNK        -0.1021 
     13 C13       -76.6156   29.4970  -72.0471 C.ar      11 UNK        -0.0753 
     14 C14       -77.5071   29.0046  -71.0886 C.ar      11 UNK        -0.0933 
     15 C15       -75.1211   29.2700  -71.8834 C.3       11 UNK         0.0166 
     16 S16       -74.3269   30.7007  -71.0947 S.3       11 UNK        -0.2615 
     17 C17       -72.6852   30.0258  -70.6702 C.3       11 UNK        -0.0865 
     18 CA        -71.6468   30.2398  -71.8003 C.3       10 UNK         0.0862 
     19 C         -70.1981   30.0873  -71.2633 C.2       10 UNK         0.5551 
     20 N         -69.5907   31.1741  -70.8075 N.am      10 UNK        -0.7319 
     21 O         -69.6377   28.9936  -71.2169 O.2       10 UNK        -0.5018 
     22 N         -71.8959   29.3304  -72.9256 N.am      10 UNK        -0.4509 
     23 C         -71.4674   29.5229  -74.1752 C.2       10 UNK         0.4899 
     24 O         -70.9046   30.5533  -74.5477 O.2       10 UNK        -0.4839 
     25 CA        -71.6982   28.3976  -75.2021 C.3       9 UNK         0.0222 
     26 CB        -70.4066   27.5874  -75.4234 C.3       9 UNK        -0.1966 
     27 N         -72.8385   27.5023  -74.9532 N.am      9 UNK        -0.4218 
     28 C         -73.0272   26.6027  -73.9757 C.2       9 UNK         0.5020 
     29 O         -72.3004   26.4968  -72.9878 O.2       9 UNK        -0.5274 
     30 CA        -74.2301   25.6529  -74.1271 C.3       8 UNK         0.0270 
     31 CB        -75.5018   26.2659  -73.5209 C.3       8 UNK        -0.1976 
     32 N         -74.4999   25.2891  -75.5184 N.am      8 UNK        -0.4313 
     33 C         -73.6929   24.5626  -76.3041 C.2       8 UNK         0.5041 
     34 O         -72.6365   24.0536  -75.9268 O.2       8 UNK        -0.5577 
     35 CA        -74.1237   24.4070  -77.7713 C.3       7 UNK         0.0284 
     36 CB        -75.1704   23.2924  -77.9326 C.3       7 UNK        -0.1958 
     37 N         -74.6516   25.6624  -78.3086 N.am      7 UNK        -0.4454 
     38 C         -73.8929   26.6910  -78.7124 C.2       7 UNK         0.5089 
     39 O         -72.6628   26.6652  -78.7479 O.2       7 UNK        -0.5125 
     40 CA        -74.6298   27.9719  -79.1446 C.3       6 UNK         0.0408 
     41 CB        -74.9123   27.9437  -80.6549 C.3       6 UNK        -0.1791 
     42 N         -75.8848   28.1925  -78.4197 N.am      6 UNK        -0.4762 
     43 C         -75.9656   28.5094  -77.1185 C.2       6 UNK         0.5007 
     44 O         -74.9853   28.6695  -76.3934 O.2       6 UNK        -0.5032 
     45 CA        -77.3808   28.6178  -76.5146 C.3       5 UNK         0.0783 
     46 C46       -77.9206   30.0559  -76.6901 C.3       11 UNK        -0.0857 
     47 S47       -79.5086   30.3210  -75.8359 S.3       11 UNK        -0.2512 
     48 C48       -79.0080   31.3301  -74.4049 C.3       11 UNK         0.0225 
     49 N         -78.2971   27.5957  -77.0451 N.am      5 UNK        -0.4615 
     50 C         -78.1032   26.2777  -76.9142 C.2       4 UNK         0.5053 
     51 O         -77.1225   25.7910  -76.3505 O.2       4 UNK        -0.5105 
     52 CA        -79.1295   25.3478  -77.5637 C.3       4 UNK         0.0263 
     53 CB        -78.8637   25.2295  -79.0769 C.3       4 UNK        -0.1981 
     54 N         -79.0235   24.0365  -76.9284 N.am      4 UNK        -0.4224 
     55 C         -79.9291   23.0556  -76.9813 C.2       3 UNK         0.4895 
     56 O         -80.9881   23.1381  -77.6043 O.2       3 UNK        -0.5091 
     57 CA        -79.6253   21.7675  -76.1945 C.3       3 UNK         0.0250 
     58 CB        -78.6407   20.8579  -76.9572 C.3       3 UNK        -0.1996 
     59 N         -79.2062   22.0075  -74.8056 N.am      3 UNK        -0.4254 
     60 C         -78.0536   22.5155  -74.3476 C.2       2 UNK         0.5004 
     61 O         -77.1085   22.8407  -75.0652 O.2       2 UNK        -0.5226 
     62 CA        -77.9969   22.7932  -72.8354 C.3       2 UNK         0.0269 
     63 CB        -76.5584   22.7923  -72.2873 C.3       2 UNK        -0.1926 
     64 N         -78.6327   24.0852  -72.5585 N.am      2 UNK        -0.4687 
     65 C         -79.9597   24.2629  -72.5206 C.2       1 UNK         0.5165 
     66 O         -80.7640   23.3262  -72.5724 O.2       1 UNK        -0.5079 
     67 H67       -80.4677   27.1327  -75.0944 H         1 UNK         0.0900 
     68 H68       -81.0022   28.2501  -73.8287 H         1 UNK         0.0900 
     69 H69       -81.8704   28.1643  -75.3548 H         1 UNK         0.0900 
     70 H70       -82.4053   24.9683  -72.7117 H         1 UNK         0.2959 
     71 H71       -79.7843   26.3472  -72.9604 H         1 UNK         0.1079 
     72 H72       -81.0979   25.4705  -70.3307 H         1 UNK         0.0837 
     73 H73       -79.5035   26.1524  -70.5118 H         1 UNK         0.0837 
     74 H74       -80.2227   29.6969  -69.6014 H         1 UNK         0.0685 
     75 H75       -79.3042   28.2426  -69.3217 H         1 UNK         0.0685 
     76 H76       -80.4093   30.2169  -72.3583 H         1 UNK         0.1434 
     77 H77       -76.4146   30.6135  -73.8730 H         1 UNK         0.1329 
     78 H78       -77.1266   28.4557  -70.2381 H         1 UNK         0.1335 
     79 H79       -74.9382   28.3781  -71.2832 H         1 UNK         0.0680 
     80 H80       -74.6634   29.0986  -72.8579 H         1 UNK         0.0680 
     81 H81       -72.7630   28.9708  -70.4005 H         1 UNK         0.1032 
     82 H82       -72.3686   30.5395  -69.7600 H         1 UNK         0.1032 
     83 H83       -71.7535   31.2638  -72.1654 H         1 UNK         0.0461 
     84 H84       -70.0448   32.0742  -70.8321 H         1 UNK         0.3453 
     85 H85       -68.6553   31.0956  -70.4399 H         1 UNK         0.3453 
     86 H86       -72.2256   28.3992  -72.6939 H         1 UNK         0.2984 
     87 H87       -71.9347   28.8944  -76.1445 H         1 UNK         0.0554 
     88 H88       -70.5355   26.8470  -76.2135 H         1 UNK         0.0847 
     89 H89       -70.0962   27.0634  -74.5187 H         1 UNK         0.0847 
     90 H90       -69.5828   28.2381  -75.7195 H         1 UNK         0.0847 
     91 H91       -73.5908   27.6038  -75.6300 H         1 UNK         0.3141 
     92 H92       -73.9965   24.7330  -73.5880 H         1 UNK         0.0743 
     93 H93       -75.7227   27.2422  -73.9514 H         1 UNK         0.0784 
     94 H94       -76.3707   25.6334  -73.6970 H         1 UNK         0.0784 
     95 H95       -75.3998   26.3851  -72.4426 H         1 UNK         0.0784 
     96 H96       -75.4031   25.5769  -75.8927 H         1 UNK         0.3213 
     97 H97       -73.2403   24.1226  -78.3476 H         1 UNK         0.0855 
     98 H98       -74.8089   22.3535  -77.5111 H         1 UNK         0.0814 
     99 H99       -75.3982   23.1111  -78.9829 H         1 UNK         0.0814 
    100 H100      -76.1037   23.5348  -77.4260 H         1 UNK         0.0814 
    101 H101      -75.6517   25.7917  -78.2667 H         1 UNK         0.3105 
    102 H102      -73.9689   28.8169  -78.9388 H         1 UNK         0.0547 
    103 H103      -73.9900   27.8054  -81.2210 H         1 UNK         0.0837 
    104 H104      -75.5857   27.1300  -80.9270 H         1 UNK         0.0837 
    105 H105      -75.3594   28.8785  -80.9933 H         1 UNK         0.0837 
    106 H106      -76.7422   28.0826  -78.9418 H         1 UNK         0.3020 
    107 H107      -77.2773   28.4263  -75.4443 H         1 UNK         0.1245 
    108 H108      -77.1946   30.7869  -76.3290 H         1 UNK         0.0781 
    109 H109      -78.0681   30.2815  -77.7479 H         1 UNK         0.0781 
    110 H110      -78.2724   32.0773  -74.7061 H         1 UNK         0.0836 
    111 H111      -79.8768   31.8954  -74.0641 H         1 UNK         0.0836 
    112 H112      -79.1203   27.9371  -77.5204 H         1 UNK         0.3022 
    113 H113      -80.1290   25.7509  -77.3884 H         1 UNK         0.0747 
    114 H114      -79.6045   24.5946  -79.5630 H         1 UNK         0.0793 
    115 H115      -78.9103   26.2035  -79.5654 H         1 UNK         0.0793 
    116 H116      -77.8795   24.8057  -79.2808 H         1 UNK         0.0793 
    117 H117      -78.1842   23.8983  -76.3665 H         1 UNK         0.3047 
    118 H118      -80.5684   21.2237  -76.1181 H         1 UNK         0.0822 
    119 H119      -78.4625   19.9270  -76.4190 H         1 UNK         0.0807 
    120 H120      -77.6766   21.3393  -77.1231 H         1 UNK         0.0807 
    121 H121      -79.0393   20.5946  -77.9378 H         1 UNK         0.0807 
    122 H122      -79.9411   21.8797  -74.1196 H         1 UNK         0.2946 
    123 H123      -78.5422   21.9987  -72.3195 H         1 UNK         0.1144 
    124 H124      -76.0863   21.8223  -72.4481 H         1 UNK         0.0793 
    125 H125      -75.9308   23.5364  -72.7736 H         1 UNK         0.0793 
    126 H126      -76.5413   22.9872  -71.2150 H         1 UNK         0.0793 
    127 H127      -78.0213   24.8870  -72.5142 H         1 UNK         0.2896 
@<TRIPOS>BOND
     1    1    2 1    
     2    1   67 1    
     3    1   68 1    
     4    1   69 1    
     5    2    3 2    
     6    2    4 am   BACKBONE|DICT|INTERRES
     7    4    5 1    
     8    4   70 1    
     9    5    6 1    
    10    5   65 1    
    11    5   71 1    
    12    6    7 1    
    13    6   72 1    
    14    6   73 1    
    15    7    8 1    
    16    8    9 1    
    17    8   74 1    
    18    8   75 1    
    19    9   10 ar   
    20    9   14 ar   
    21   10   11 ar   
    22   10   76 1    
    23   11   12 ar   
    24   11   48 1    
    25   12   13 ar   
    26   12   77 1    
    27   13   14 ar   
    28   13   15 1    
    29   14   78 1    
    30   15   16 1    
    31   15   79 1    
    32   15   80 1    
    33   16   17 1    
    34   17   18 1    
    35   17   81 1    
    36   17   82 1    
    37   18   19 1    
    38   18   22 1    
    39   18   83 1    
    40   19   20 am   BACKBONE|DICT|INTERRES
    41   19   21 2    
    42   20   84 1    
    43   20   85 1    
    44   22   23 am   BACKBONE|DICT|INTERRES
    45   22   86 1    
    46   23   24 2    
    47   23   25 1    
    48   25   26 1    
    49   25   27 1    
    50   25   87 1    
    51   26   88 1    
    52   26   89 1    
    53   26   90 1    
    54   27   28 am   BACKBONE|DICT|INTERRES
    55   27   91 1    
    56   28   29 2    
    57   28   30 1    
    58   30   31 1    
    59   30   32 1    
    60   30   92 1    
    61   31   93 1    
    62   31   94 1    
    63   31   95 1    
    64   32   33 am   BACKBONE|DICT|INTERRES
    65   32   96 1    
    66   33   34 2    
    67   33   35 1    
    68   35   36 1    
    69   35   37 1    
    70   35   97 1    
    71   36   98 1    
    72   36   99 1    
    73   36  100 1    
    74   37   38 am   BACKBONE|DICT|INTERRES
    75   37  101 1    
    76   38   39 2    
    77   38   40 1    
    78   40   41 1    
    79   40   42 1    
    80   40  102 1    
    81   41  103 1    
    82   41  104 1    
    83   41  105 1    
    84   42   43 am   BACKBONE|DICT|INTERRES
    85   42  106 1    
    86   43   44 2    
    87   43   45 1    
    88   45   46 1    
    89   45   49 1    
    90   45  107 1    
    91   46   47 1    
    92   46  108 1    
    93   46  109 1    
    94   47   48 1    
    95   48  110 1    
    96   48  111 1    
    97   49   50 am   BACKBONE|DICT|INTERRES
    98   49  112 1    
    99   50   51 2    
   100   50   52 1    
   101   52   53 1    
   102   52   54 1    
   103   52  113 1    
   104   53  114 1    
   105   53  115 1    
   106   53  116 1    
   107   54   55 am   BACKBONE|DICT|INTERRES
   108   54  117 1    
   109   55   56 2    
   110   55   57 1    
   111   57   58 1    
   112   57   59 1    
   113   57  118 1    
   114   58  119 1    
   115   58  120 1    
   116   58  121 1    
   117   59   60 am   BACKBONE|DICT|INTERRES
   118   59  122 1    
   119   60   61 2    
   120   60   62 1    
   121   62   63 1    
   122   62   64 1    
   123   62  123 1    
   124   63  124 1    
   125   63  125 1    
   126   63  126 1    
   127   64   65 am   BACKBONE|DICT|INTERRES
   128   64  127 1    
   129   65   66 2    
@<TRIPOS>SUBSTRUCTURE
     1 UNK         1 GROUP             0       ****    0 ROOT    
