@<TRIPOS>MOLECULE
3R135
127   129    1
SMALL
USER_CHARGES


@<TRIPOS>ATOM
      1 CA        -82.5771   28.2624  -70.4018 C.3       0 UNK        -0.1998 
      2 C         -82.9062   28.0370  -71.8698 C.2       0 UNK         0.4909 
      3 O         -83.9253   27.4225  -72.1846 O.2       0 UNK        -0.5240 
      4 N         -82.0456   28.5283  -72.7706 N.am      1 UNK        -0.4739 
      5 CA        -82.1692   28.3873  -74.2283 C.3       1 UNK         0.0864 
      6 C6        -81.3276   29.4526  -74.9814 C.3       11 UNK        -0.0881 
      7 S7        -79.5319   29.3794  -74.6470 S.3       11 UNK        -0.2682 
      8 C8        -79.3699   30.5043  -73.2158 C.3       11 UNK         0.0289 
      9 C9        -78.4300   29.9521  -72.1484 C.ar      11 UNK        -0.0687 
     10 C10       -78.5046   28.6133  -71.7508 C.ar      11 UNK        -0.0823 
     11 C11       -77.6161   28.0954  -70.8062 C.ar      11 UNK        -0.0830 
     12 C12       -76.6655   28.9370  -70.2221 C.ar      11 UNK        -0.1021 
     13 C13       -76.5918   30.2836  -70.5925 C.ar      11 UNK        -0.0753 
     14 C14       -77.4803   30.7855  -71.5505 C.ar      11 UNK        -0.0933 
     15 C15       -75.5461   31.1947  -69.9637 C.3       11 UNK         0.0166 
     16 S16       -73.8901   30.9500  -70.6868 S.3       11 UNK        -0.2615 
     17 C17       -74.1691   31.4144  -72.4300 C.3       11 UNK        -0.0865 
     18 CA        -74.1764   30.1741  -73.3624 C.3       10 UNK         0.0862 
     19 C         -74.8082   30.5250  -74.7317 C.2       10 UNK         0.5551 
     20 N         -76.1060   30.3070  -74.8887 N.am      10 UNK        -0.7319 
     21 O         -74.1467   31.0441  -75.6292 O.2       10 UNK        -0.5018 
     22 N         -72.8164   29.6604  -73.5610 N.am      10 UNK        -0.4509 
     23 C         -72.3663   28.4631  -73.1798 C.2       10 UNK         0.4899 
     24 O         -73.0268   27.6284  -72.5586 O.2       10 UNK        -0.4839 
     25 CA        -70.9088   28.1463  -73.5473 C.3       9 UNK         0.0222 
     26 CB        -70.0835   27.8020  -72.2955 C.3       9 UNK        -0.1966 
     27 N         -70.8606   27.0268  -74.4848 N.am      9 UNK        -0.4218 
     28 C         -71.0763   27.1246  -75.8034 C.2       9 UNK         0.5020 
     29 O         -71.2464   28.1958  -76.3893 O.2       9 UNK        -0.5274 
     30 CA        -71.0785   25.8215  -76.6187 C.3       8 UNK         0.0270 
     31 CB        -70.8907   24.5362  -75.7830 C.3       8 UNK        -0.1976 
     32 N         -72.3231   25.7301  -77.3816 N.am      8 UNK        -0.4313 
     33 C         -72.4252   25.2346  -78.6221 C.2       8 UNK         0.5041 
     34 O         -71.4517   24.8506  -79.2740 O.2       8 UNK        -0.5577 
     35 CA        -73.8251   25.1015  -79.2573 C.3       7 UNK         0.0284 
     36 CB        -74.1403   23.6239  -79.5490 C.3       7 UNK        -0.1958 
     37 N         -74.9079   25.6586  -78.4439 N.am      7 UNK        -0.4454 
     38 C         -75.2423   26.9547  -78.3987 C.2       7 UNK         0.5089 
     39 O         -74.7061   27.8225  -79.0880 O.2       7 UNK        -0.5125 
     40 CA        -76.3408   27.3594  -77.3957 C.3       6 UNK         0.0408 
     41 CB        -77.7260   27.3098  -78.0565 C.3       6 UNK        -0.1791 
     42 N         -76.3615   26.5625  -76.1631 N.am      6 UNK        -0.4762 
     43 C         -75.3325   26.4483  -75.3099 C.2       6 UNK         0.5007 
     44 O         -74.2279   26.9434  -75.5156 O.2       6 UNK        -0.5032 
     45 CA        -75.5577   25.6165  -74.0380 C.3       5 UNK         0.0783 
     46 C46       -76.4232   26.3933  -73.0238 C.3       11 UNK        -0.0857 
     47 S47       -76.3810   25.6549  -71.3562 S.3       11 UNK        -0.2512 
     48 C48       -77.6590   26.6112  -70.4678 C.3       11 UNK         0.0225 
     49 N         -76.1349   24.3215  -74.3931 N.am      5 UNK        -0.4615 
     50 C         -75.4189   23.2746  -74.8220 C.2       4 UNK         0.5053 
     51 O         -74.1893   23.2545  -74.8596 O.2       4 UNK        -0.5105 
     52 CA        -76.2020   22.0415  -75.3074 C.3       4 UNK         0.0263 
     53 CB        -76.3959   21.0424  -74.1555 C.3       4 UNK        -0.1981 
     54 N         -77.5065   22.3688  -75.8891 N.am      4 UNK        -0.4224 
     55 C         -77.6880   23.0908  -77.0046 C.2       3 UNK         0.4895 
     56 O         -76.7708   23.5402  -77.6898 O.2       3 UNK        -0.5091 
     57 CA        -79.1421   23.4085  -77.3908 C.3       3 UNK         0.0250 
     58 CB        -79.7358   22.2716  -78.2376 C.3       3 UNK        -0.1996 
     59 N         -80.0124   23.6732  -76.2391 N.am      3 UNK        -0.4254 
     60 C         -79.8219   24.6552  -75.3468 C.2       2 UNK         0.5004 
     61 O         -78.8576   25.4236  -75.3634 O.2       2 UNK        -0.5226 
     62 CA        -80.8406   24.7510  -74.2023 C.3       2 UNK         0.0269 
     63 CB        -80.2634   24.1081  -72.9300 C.3       2 UNK        -0.1926 
     64 N         -81.2025   26.1378  -73.9106 N.am      2 UNK        -0.4687 
     65 C         -81.8872   26.9509  -74.7296 C.2       1 UNK         0.5165 
     66 O         -82.3185   26.6017  -75.8299 O.2       1 UNK        -0.5079 
     67 H67       -81.6402   28.8041  -70.2709 H         1 UNK         0.0900 
     68 H68       -82.4900   27.3065  -69.8860 H         1 UNK         0.0900 
     69 H69       -83.3703   28.8365  -69.9238 H         1 UNK         0.0900 
     70 H70       -81.2336   29.0374  -72.4556 H         1 UNK         0.2959 
     71 H71       -83.2155   28.5794  -74.4779 H         1 UNK         0.1079 
     72 H72       -81.4722   29.3494  -76.0586 H         1 UNK         0.0837 
     73 H73       -81.6942   30.4518  -74.7407 H         1 UNK         0.0837 
     74 H74       -79.0112   31.4670  -73.5834 H         1 UNK         0.0685 
     75 H75       -80.3397   30.6974  -72.7578 H         1 UNK         0.0685 
     76 H76       -79.2265   27.9548  -72.2106 H         1 UNK         0.1434 
     77 H77       -75.9659   28.5388  -69.4998 H         1 UNK         0.1329 
     78 H78       -77.4248   31.8260  -71.8396 H         1 UNK         0.1335 
     79 H79       -75.8338   32.2422  -70.0673 H         1 UNK         0.0680 
     80 H80       -75.4936   30.9995  -68.8916 H         1 UNK         0.0680 
     81 H81       -73.3914   32.1177  -72.7331 H         1 UNK         0.1032 
     82 H82       -75.1041   31.9712  -72.5033 H         1 UNK         0.1032 
     83 H83       -74.8003   29.4030  -72.9069 H         1 UNK         0.0461 
     84 H84       -76.5388   30.5536  -75.7639 H         1 UNK         0.3453 
     85 H85       -76.6649   29.9044  -74.1528 H         1 UNK         0.3453 
     86 H86       -72.2267   30.2384  -74.1434 H         1 UNK         0.2984 
     87 H87       -70.4534   29.0224  -74.0147 H         1 UNK         0.0554 
     88 H88       -69.0392   27.6160  -72.5466 H         1 UNK         0.0847 
     89 H89       -70.4685   26.9188  -71.7839 H         1 UNK         0.0847 
     90 H90       -70.1031   28.6252  -71.5800 H         1 UNK         0.0847 
     91 H91       -70.7738   26.1053  -74.0819 H         1 UNK         0.3141 
     92 H92       -70.2340   25.9045  -77.3059 H         1 UNK         0.0743 
     93 H93       -71.6960   24.4008  -75.0596 H         1 UNK         0.0784 
     94 H94       -70.8777   23.6538  -76.4232 H         1 UNK         0.0784 
     95 H95       -69.9438   24.5451  -75.2417 H         1 UNK         0.0784 
     96 H96       -73.1454   26.1090  -76.9165 H         1 UNK         0.3213 
     97 H97       -73.7953   25.6330  -80.2109 H         1 UNK         0.0855 
     98 H98       -74.1635   23.0310  -78.6335 H         1 UNK         0.0814 
     99 H99       -73.3898   23.1820  -80.2057 H         1 UNK         0.0814 
    100 H100      -75.1058   23.5139  -80.0431 H         1 UNK         0.0814 
    101 H101      -75.4544   24.9969  -77.8985 H         1 UNK         0.3105 
    102 H102      -76.1450   28.3922  -77.1020 H         1 UNK         0.0547 
    103 H103      -77.7649   27.9620  -78.9298 H         1 UNK         0.0837 
    104 H104      -77.9728   26.3026  -78.3905 H         1 UNK         0.0837 
    105 H105      -78.5070   27.6380  -77.3697 H         1 UNK         0.0837 
    106 H106      -77.2499   26.1276  -75.9170 H         1 UNK         0.3020 
    107 H107      -74.5747   25.4592  -73.5857 H         1 UNK         0.1245 
    108 H108      -77.4571   26.4641  -73.3646 H         1 UNK         0.0781 
    109 H109      -76.0553   27.4164  -72.9314 H         1 UNK         0.0781 
    110 H110      -77.5237   26.4736  -69.3941 H         1 UNK         0.0836 
    111 H111      -78.6394   26.1952  -70.7040 H         1 UNK         0.0836 
    112 H112      -77.1434   24.2826  -74.4433 H         1 UNK         0.3022 
    113 H113      -75.6037   21.5598  -76.0839 H         1 UNK         0.0747 
    114 H114      -76.8747   20.1257  -74.5003 H         1 UNK         0.0793 
    115 H115      -75.4365   20.7602  -73.7194 H         1 UNK         0.0793 
    116 H116      -77.0065   21.4620  -73.3548 H         1 UNK         0.0793 
    117 H117      -78.3228   22.0412  -75.3941 H         1 UNK         0.3047 
    118 H118      -79.1282   24.3120  -78.0022 H         1 UNK         0.0822 
    119 H119      -80.7303   22.5270  -78.6042 H         1 UNK         0.0807 
    120 H120      -79.8138   21.3419  -77.6725 H         1 UNK         0.0807 
    121 H121      -79.1134   22.0708  -79.1110 H         1 UNK         0.0807 
    122 H122      -80.8235   23.0786  -76.1441 H         1 UNK         0.2946 
    123 H123      -81.7513   24.2192  -74.4867 H         1 UNK         0.1144 
    124 H124      -80.9761   24.1470  -72.1059 H         1 UNK         0.0793 
    125 H125      -79.3475   24.6044  -72.6059 H         1 UNK         0.0793 
    126 H126      -80.0217   23.0575  -73.0967 H         1 UNK         0.0793 
    127 H127      -80.8855   26.5156  -73.0323 H         1 UNK         0.2896 
@<TRIPOS>BOND
     1    1    2 1    
     2    1   67 1    
     3    1   68 1    
     4    1   69 1    
     5    2    3 2    
     6    2    4 am   BACKBONE|DICT|INTERRES
     7    4    5 1    
     8    4   70 1    
     9    5    6 1    
    10    5   65 1    
    11    5   71 1    
    12    6    7 1    
    13    6   72 1    
    14    6   73 1    
    15    7    8 1    
    16    8    9 1    
    17    8   74 1    
    18    8   75 1    
    19    9   10 ar   
    20    9   14 ar   
    21   10   11 ar   
    22   10   76 1    
    23   11   12 ar   
    24   11   48 1    
    25   12   13 ar   
    26   12   77 1    
    27   13   14 ar   
    28   13   15 1    
    29   14   78 1    
    30   15   16 1    
    31   15   79 1    
    32   15   80 1    
    33   16   17 1    
    34   17   18 1    
    35   17   81 1    
    36   17   82 1    
    37   18   19 1    
    38   18   22 1    
    39   18   83 1    
    40   19   20 am   BACKBONE|DICT|INTERRES
    41   19   21 2    
    42   20   84 1    
    43   20   85 1    
    44   22   23 am   BACKBONE|DICT|INTERRES
    45   22   86 1    
    46   23   24 2    
    47   23   25 1    
    48   25   26 1    
    49   25   27 1    
    50   25   87 1    
    51   26   88 1    
    52   26   89 1    
    53   26   90 1    
    54   27   28 am   BACKBONE|DICT|INTERRES
    55   27   91 1    
    56   28   29 2    
    57   28   30 1    
    58   30   31 1    
    59   30   32 1    
    60   30   92 1    
    61   31   93 1    
    62   31   94 1    
    63   31   95 1    
    64   32   33 am   BACKBONE|DICT|INTERRES
    65   32   96 1    
    66   33   34 2    
    67   33   35 1    
    68   35   36 1    
    69   35   37 1    
    70   35   97 1    
    71   36   98 1    
    72   36   99 1    
    73   36  100 1    
    74   37   38 am   BACKBONE|DICT|INTERRES
    75   37  101 1    
    76   38   39 2    
    77   38   40 1    
    78   40   41 1    
    79   40   42 1    
    80   40  102 1    
    81   41  103 1    
    82   41  104 1    
    83   41  105 1    
    84   42   43 am   BACKBONE|DICT|INTERRES
    85   42  106 1    
    86   43   44 2    
    87   43   45 1    
    88   45   46 1    
    89   45   49 1    
    90   45  107 1    
    91   46   47 1    
    92   46  108 1    
    93   46  109 1    
    94   47   48 1    
    95   48  110 1    
    96   48  111 1    
    97   49   50 am   BACKBONE|DICT|INTERRES
    98   49  112 1    
    99   50   51 2    
   100   50   52 1    
   101   52   53 1    
   102   52   54 1    
   103   52  113 1    
   104   53  114 1    
   105   53  115 1    
   106   53  116 1    
   107   54   55 am   BACKBONE|DICT|INTERRES
   108   54  117 1    
   109   55   56 2    
   110   55   57 1    
   111   57   58 1    
   112   57   59 1    
   113   57  118 1    
   114   58  119 1    
   115   58  120 1    
   116   58  121 1    
   117   59   60 am   BACKBONE|DICT|INTERRES
   118   59  122 1    
   119   60   61 2    
   120   60   62 1    
   121   62   63 1    
   122   62   64 1    
   123   62  123 1    
   124   63  124 1    
   125   63  125 1    
   126   63  126 1    
   127   64   65 am   BACKBONE|DICT|INTERRES
   128   64  127 1    
   129   65   66 2    
@<TRIPOS>SUBSTRUCTURE
     1 UNK         1 GROUP             0       ****    0 ROOT    
