@<TRIPOS>MOLECULE
3R135
127   129    1
SMALL
USER_CHARGES


@<TRIPOS>ATOM
      1 CA        -79.9545   28.7568  -71.0038 C.3       0 UNK        -0.1998 
      2 C         -80.6385   28.7010  -72.3615 C.2       0 UNK         0.4909 
      3 O         -81.8369   28.9654  -72.4585 O.2       0 UNK        -0.5240 
      4 N         -79.8808   28.3575  -73.4112 N.am      1 UNK        -0.4739 
      5 CA        -80.3509   28.2535  -74.7992 C.3       1 UNK         0.0864 
      6 C6        -79.1758   28.1296  -75.8113 C.3       11 UNK        -0.0881 
      7 S7        -78.1354   29.5980  -76.1547 S.3       11 UNK        -0.2682 
      8 C8        -78.0852   30.6043  -74.6315 C.3       11 UNK         0.0289 
      9 C9        -77.2866   30.0311  -73.4570 C.ar      11 UNK        -0.0687 
     10 C10       -76.6024   28.8073  -73.5084 C.ar      11 UNK        -0.0823 
     11 C11       -75.9044   28.3337  -72.3933 C.ar      11 UNK        -0.0830 
     12 C12       -75.8936   29.0847  -71.2159 C.ar      11 UNK        -0.1021 
     13 C13       -76.5519   30.3149  -71.1558 C.ar      11 UNK        -0.0753 
     14 C14       -77.2476   30.7766  -72.2753 C.ar      11 UNK        -0.0933 
     15 C15       -76.5173   31.1517  -69.8865 C.3       11 UNK         0.0166 
     16 S16       -75.2175   32.4274  -69.9554 S.3       11 UNK        -0.2615 
     17 C17       -73.7068   31.4431  -69.6612 C.3       11 UNK        -0.0865 
     18 CA        -72.6872   31.4928  -70.8304 C.3       10 UNK         0.0862 
     19 C         -71.4293   30.6580  -70.4580 C.2       10 UNK         0.5551 
     20 N         -70.3937   31.2960  -69.9304 N.am      10 UNK        -0.7319 
     21 O         -71.4090   29.4365  -70.5969 O.2       10 UNK        -0.5018 
     22 N         -73.2972   31.0896  -72.1084 N.am      10 UNK        -0.4509 
     23 C         -72.6705   31.0361  -73.2903 C.2       10 UNK         0.4899 
     24 O         -71.4985   31.3704  -73.4791 O.2       10 UNK        -0.4839 
     25 CA        -73.4982   30.5376  -74.4756 C.3       9 UNK         0.0222 
     26 CB        -74.0202   31.6996  -75.3372 C.3       9 UNK        -0.1966 
     27 N         -72.6723   29.6343  -75.2713 N.am      9 UNK        -0.4218 
     28 C         -73.1317   28.5709  -75.9393 C.2       9 UNK         0.5020 
     29 O         -74.3305   28.3118  -76.0645 O.2       9 UNK        -0.5274 
     30 CA        -72.0745   27.6399  -76.5571 C.3       8 UNK         0.0270 
     31 CB        -71.0996   27.0955  -75.4947 C.3       8 UNK        -0.1976 
     32 N         -72.7444   26.5130  -77.2016 N.am      8 UNK        -0.4313 
     33 C         -72.3993   25.9395  -78.3608 C.2       8 UNK         0.5041 
     34 O         -71.4070   26.2666  -79.0142 O.2       8 UNK        -0.5577 
     35 CA        -73.3042   24.8060  -78.8931 C.3       7 UNK         0.0284 
     36 CB        -72.6720   23.4343  -78.6059 C.3       7 UNK        -0.1958 
     37 N         -74.6572   24.8324  -78.3308 N.am      7 UNK        -0.4454 
     38 C         -75.5646   25.7852  -78.5746 C.2       7 UNK         0.5089 
     39 O         -75.4264   26.6322  -79.4583 O.2       7 UNK        -0.5125 
     40 CA        -76.8292   25.8343  -77.6907 C.3       6 UNK         0.0408 
     41 CB        -78.0753   25.5047  -78.5306 C.3       6 UNK        -0.1791 
     42 N         -76.8679   25.0119  -76.4698 N.am      6 UNK        -0.4762 
     43 C         -75.9600   24.9138  -75.4846 C.2       6 UNK         0.5007 
     44 O         -74.8187   25.3641  -75.5452 O.2       6 UNK        -0.5032 
     45 CA        -76.4018   24.1715  -74.2106 C.3       5 UNK         0.0783 
     46 C46       -77.1030   25.1413  -73.2143 C.3       11 UNK        -0.0857 
     47 S47       -76.0239   25.6106  -71.8205 S.3       11 UNK        -0.2512 
     48 C48       -75.1060   27.0424  -72.4733 C.3       11 UNK         0.0225 
     49 N         -77.2445   23.0203  -74.5471 N.am      5 UNK        -0.4615 
     50 C         -76.7839   21.7887  -74.8058 C.2       4 UNK         0.5053 
     51 O         -75.5912   21.4860  -74.7680 O.2       4 UNK        -0.5105 
     52 CA        -77.8173   20.6981  -75.1477 C.3       4 UNK         0.0263 
     53 CB        -78.1580   19.8762  -73.8939 C.3       4 UNK        -0.1981 
     54 N         -79.0554   21.2298  -75.7212 N.am      4 UNK        -0.4224 
     55 C         -79.1766   21.6880  -76.9749 C.2       3 UNK         0.4895 
     56 O         -78.2749   21.6429  -77.8118 O.2       3 UNK        -0.5091 
     57 CA        -80.5233   22.3356  -77.3528 C.3       3 UNK         0.0250 
     58 CB        -81.4624   21.2919  -77.9786 C.3       3 UNK        -0.1996 
     59 N         -81.2177   23.0161  -76.2484 N.am      3 UNK        -0.4254 
     60 C         -80.6955   24.0056  -75.5116 C.2       2 UNK         0.5004 
     61 O         -79.5262   24.3860  -75.6146 O.2       2 UNK        -0.5226 
     62 CA        -81.6000   24.6490  -74.4477 C.3       2 UNK         0.0269 
     63 CB        -81.5615   23.8299  -73.1476 C.3       2 UNK        -0.1926 
     64 N         -81.1285   26.0052  -74.1665 N.am      2 UNK        -0.4687 
     65 C         -81.2897   27.0428  -75.0002 C.2       1 UNK         0.5165 
     66 O         -82.0922   27.0454  -75.9353 O.2       1 UNK        -0.5079 
     67 H67       -80.5191   28.1790  -70.2728 H         1 UNK         0.0900 
     68 H68       -79.8967   29.7875  -70.6552 H         1 UNK         0.0900 
     69 H69       -78.9420   28.3544  -71.0420 H         1 UNK         0.0900 
     70 H70       -78.8907   28.2112  -73.2718 H         1 UNK         0.2959 
     71 H71       -80.9277   29.1496  -75.0379 H         1 UNK         0.1079 
     72 H72       -79.5595   27.8380  -76.7915 H         1 UNK         0.0837 
     73 H73       -78.5180   27.3112  -75.5158 H         1 UNK         0.0837 
     74 H74       -77.6384   31.5633  -74.8973 H         1 UNK         0.0685 
     75 H75       -79.1039   30.8289  -74.3142 H         1 UNK         0.0685 
     76 H76       -76.5732   28.2293  -74.4211 H         1 UNK         0.1434 
     77 H77       -75.3549   28.7166  -70.3535 H         1 UNK         0.1329 
     78 H78       -77.7616   31.7272  -72.2253 H         1 UNK         0.1335 
     79 H79       -76.3737   30.5202  -69.0083 H         1 UNK         0.0680 
     80 H80       -77.4819   31.6429  -69.7490 H         1 UNK         0.0680 
     81 H81       -73.9757   30.4107  -69.4339 H         1 UNK         0.1032 
     82 H82       -73.2450   31.8295  -68.7504 H         1 UNK         0.1032 
     83 H83       -72.3759   32.5315  -70.9579 H         1 UNK         0.0461 
     84 H84       -70.4063   32.2962  -69.8034 H         1 UNK         0.3453 
     85 H85       -69.5761   30.7687  -69.6663 H         1 UNK         0.3453 
     86 H86       -74.2643   30.8003  -72.0536 H         1 UNK         0.2984 
     87 H87       -74.3482   29.9866  -74.0811 H         1 UNK         0.0554 
     88 H88       -74.6488   31.3350  -76.1500 H         1 UNK         0.0847 
     89 H89       -73.2042   32.2768  -75.7736 H         1 UNK         0.0847 
     90 H90       -74.6268   32.3831  -74.7418 H         1 UNK         0.0847 
     91 H91       -71.6754   29.7862  -75.1845 H         1 UNK         0.3141 
     92 H92       -71.5215   28.2178  -77.3005 H         1 UNK         0.0743 
     93 H93       -71.6290   26.5638  -74.7026 H         1 UNK         0.0784 
     94 H94       -70.3815   26.4043  -75.9363 H         1 UNK         0.0784 
     95 H95       -70.5249   27.8955  -75.0272 H         1 UNK         0.0784 
     96 H96       -73.6005   26.2149  -76.7339 H         1 UNK         0.3213 
     97 H97       -73.3825   24.9301  -79.9753 H         1 UNK         0.0855 
     98 H98       -72.5787   23.2499  -77.5348 H         1 UNK         0.0814 
     99 H99       -71.6717   23.3684  -79.0364 H         1 UNK         0.0814 
    100 H100      -73.2627   22.6259  -79.0371 H         1 UNK         0.0814 
    101 H101      -74.8429   24.2078  -77.5587 H         1 UNK         0.3105 
    102 H102      -76.9125   26.8705  -77.3589 H         1 UNK         0.0547 
    103 H103      -78.1234   26.1223  -79.4284 H         1 UNK         0.0837 
    104 H104      -78.0752   24.4619  -78.8502 H         1 UNK         0.0837 
    105 H105      -78.9938   25.6831  -77.9719 H         1 UNK         0.0837 
    106 H106      -77.7798   24.6067  -76.2716 H         1 UNK         0.3020 
    107 H107      -75.4897   23.7911  -73.7438 H         1 UNK         0.1245 
    108 H108      -77.9737   24.6579  -72.7682 H         1 UNK         0.0781 
    109 H109      -77.4995   26.0358  -73.6964 H         1 UNK         0.0781 
    110 H110      -74.7834   26.8577  -73.4968 H         1 UNK         0.0836 
    111 H111      -74.1870   27.1538  -71.8956 H         1 UNK         0.0836 
    112 H112      -78.2288   23.2180  -74.6855 H         1 UNK         0.3022 
    113 H113      -77.3582   20.0290  -75.8789 H         1 UNK         0.0747 
    114 H114      -78.8329   19.0531  -74.1299 H         1 UNK         0.0793 
    115 H115      -77.2584   19.4396  -73.4575 H         1 UNK         0.0793 
    116 H116      -78.6292   20.4884  -73.1238 H         1 UNK         0.0793 
    117 H117      -79.8545   21.2958  -75.1079 H         1 UNK         0.3047 
    118 H118      -80.3077   23.0937  -78.1087 H         1 UNK         0.0822 
    119 H119      -82.3722   21.7542  -78.3621 H         1 UNK         0.0807 
    120 H120      -81.7515   20.5250  -77.2588 H         1 UNK         0.0807 
    121 H121      -80.9814   20.7865  -78.8176 H         1 UNK         0.0807 
    122 H122      -82.1772   22.7442  -76.0872 H         1 UNK         0.2946 
    123 H123      -82.6250   24.6924  -74.8235 H         1 UNK         0.1144 
    124 H124      -80.5483   23.7414  -72.7527 H         1 UNK         0.0793 
    125 H125      -81.9387   22.8191  -73.3082 H         1 UNK         0.0793 
    126 H126      -82.1821   24.2852  -72.3755 H         1 UNK         0.0793 
    127 H127      -80.4348   26.0984  -73.4402 H         1 UNK         0.2896 
@<TRIPOS>BOND
     1    1    2 1    
     2    1   67 1    
     3    1   68 1    
     4    1   69 1    
     5    2    3 2    
     6    2    4 am   BACKBONE|DICT|INTERRES
     7    4    5 1    
     8    4   70 1    
     9    5    6 1    
    10    5   65 1    
    11    5   71 1    
    12    6    7 1    
    13    6   72 1    
    14    6   73 1    
    15    7    8 1    
    16    8    9 1    
    17    8   74 1    
    18    8   75 1    
    19    9   10 ar   
    20    9   14 ar   
    21   10   11 ar   
    22   10   76 1    
    23   11   12 ar   
    24   11   48 1    
    25   12   13 ar   
    26   12   77 1    
    27   13   14 ar   
    28   13   15 1    
    29   14   78 1    
    30   15   16 1    
    31   15   79 1    
    32   15   80 1    
    33   16   17 1    
    34   17   18 1    
    35   17   81 1    
    36   17   82 1    
    37   18   19 1    
    38   18   22 1    
    39   18   83 1    
    40   19   20 am   BACKBONE|DICT|INTERRES
    41   19   21 2    
    42   20   84 1    
    43   20   85 1    
    44   22   23 am   BACKBONE|DICT|INTERRES
    45   22   86 1    
    46   23   24 2    
    47   23   25 1    
    48   25   26 1    
    49   25   27 1    
    50   25   87 1    
    51   26   88 1    
    52   26   89 1    
    53   26   90 1    
    54   27   28 am   BACKBONE|DICT|INTERRES
    55   27   91 1    
    56   28   29 2    
    57   28   30 1    
    58   30   31 1    
    59   30   32 1    
    60   30   92 1    
    61   31   93 1    
    62   31   94 1    
    63   31   95 1    
    64   32   33 am   BACKBONE|DICT|INTERRES
    65   32   96 1    
    66   33   34 2    
    67   33   35 1    
    68   35   36 1    
    69   35   37 1    
    70   35   97 1    
    71   36   98 1    
    72   36   99 1    
    73   36  100 1    
    74   37   38 am   BACKBONE|DICT|INTERRES
    75   37  101 1    
    76   38   39 2    
    77   38   40 1    
    78   40   41 1    
    79   40   42 1    
    80   40  102 1    
    81   41  103 1    
    82   41  104 1    
    83   41  105 1    
    84   42   43 am   BACKBONE|DICT|INTERRES
    85   42  106 1    
    86   43   44 2    
    87   43   45 1    
    88   45   46 1    
    89   45   49 1    
    90   45  107 1    
    91   46   47 1    
    92   46  108 1    
    93   46  109 1    
    94   47   48 1    
    95   48  110 1    
    96   48  111 1    
    97   49   50 am   BACKBONE|DICT|INTERRES
    98   49  112 1    
    99   50   51 2    
   100   50   52 1    
   101   52   53 1    
   102   52   54 1    
   103   52  113 1    
   104   53  114 1    
   105   53  115 1    
   106   53  116 1    
   107   54   55 am   BACKBONE|DICT|INTERRES
   108   54  117 1    
   109   55   56 2    
   110   55   57 1    
   111   57   58 1    
   112   57   59 1    
   113   57  118 1    
   114   58  119 1    
   115   58  120 1    
   116   58  121 1    
   117   59   60 am   BACKBONE|DICT|INTERRES
   118   59  122 1    
   119   60   61 2    
   120   60   62 1    
   121   62   63 1    
   122   62   64 1    
   123   62  123 1    
   124   63  124 1    
   125   63  125 1    
   126   63  126 1    
   127   64   65 am   BACKBONE|DICT|INTERRES
   128   64  127 1    
   129   65   66 2    
@<TRIPOS>SUBSTRUCTURE
     1 UNK         1 GROUP             0       ****    0 ROOT    
