@<TRIPOS>MOLECULE
3R135
127   129    1
SMALL
USER_CHARGES


@<TRIPOS>ATOM
      1 CA        -80.7615   28.9627  -68.5194 C.3       0 UNK        -0.1998 
      2 C         -81.4277   27.9471  -69.4353 C.2       0 UNK         0.4909 
      3 O         -82.3235   27.2237  -68.9995 O.2       0 UNK        -0.5240 
      4 N         -80.9927   27.8825  -70.7003 N.am      1 UNK        -0.4739 
      5 CA        -81.4972   26.9427  -71.7102 C.3       1 UNK         0.0864 
      6 C6        -81.2484   27.4679  -73.1458 C.3       11 UNK        -0.0881 
      7 S7        -82.3679   28.8400  -73.6103 S.3       11 UNK        -0.2682 
      8 C8        -81.5696   30.3453  -72.9491 C.3       11 UNK         0.0289 
      9 C9        -80.0754   30.3994  -73.2299 C.ar      11 UNK        -0.0687 
     10 C10       -79.5993   30.4214  -74.5433 C.ar      11 UNK        -0.0823 
     11 C11       -78.2269   30.3908  -74.8113 C.ar      11 UNK        -0.0830 
     12 C12       -77.3282   30.3346  -73.7341 C.ar      11 UNK        -0.1021 
     13 C13       -77.7943   30.3343  -72.4143 C.ar      11 UNK        -0.0753 
     14 C14       -79.1670   30.3891  -72.1706 C.ar      11 UNK        -0.0933 
     15 C15       -76.8228   30.2640  -71.2434 C.3       11 UNK         0.0166 
     16 S16       -77.0223   28.7355  -70.2642 S.3       11 UNK        -0.2615 
     17 C17       -76.4604   27.4759  -71.4548 C.3       11 UNK        -0.0865 
     18 CA        -74.9104   27.3360  -71.5007 C.3       10 UNK         0.0862 
     19 C         -74.3564   26.1466  -70.6644 C.2       10 UNK         0.5551 
     20 N         -73.3084   25.4646  -71.1129 N.am      10 UNK        -0.7319 
     21 O         -74.8699   25.8416  -69.5920 O.2       10 UNK        -0.5018 
     22 N         -74.4414   27.3227  -72.8921 N.am      10 UNK        -0.4509 
     23 C         -73.8373   28.3337  -73.5211 C.2       10 UNK         0.4899 
     24 O         -73.5487   29.4078  -72.9915 O.2       10 UNK        -0.4839 
     25 CA        -73.5382   28.1004  -75.0115 C.3       9 UNK         0.0222 
     26 CB        -72.5634   29.1415  -75.6027 C.3       9 UNK        -0.1966 
     27 N         -73.1025   26.7333  -75.3361 N.am      9 UNK        -0.4218 
     28 C         -72.0140   26.1062  -74.8621 C.2       9 UNK         0.5020 
     29 O         -71.2584   26.5950  -74.0212 O.2       9 UNK        -0.5274 
     30 CA        -71.7078   24.6856  -75.3751 C.3       8 UNK         0.0270 
     31 CB        -71.9454   23.6487  -74.2637 C.3       8 UNK        -0.1976 
     32 N         -72.4472   24.2792  -76.5751 N.am      8 UNK        -0.4313 
     33 C         -72.2161   24.7283  -77.8167 C.2       8 UNK         0.5041 
     34 O         -71.3973   25.6108  -78.0786 O.2       8 UNK        -0.5577 
     35 CA        -73.0064   24.0781  -78.9666 C.3       7 UNK         0.0284 
     36 CB        -73.9821   22.9664  -78.5225 C.3       7 UNK        -0.1958 
     37 N         -73.7602   25.1159  -79.6621 N.am      7 UNK        -0.4454 
     38 C         -73.6631   25.4295  -80.9621 C.2       7 UNK         0.5089 
     39 O         -72.9079   24.8568  -81.7486 O.2       7 UNK        -0.5125 
     40 CA        -74.5787   26.5547  -81.4949 C.3       6 UNK         0.0408 
     41 CB        -75.6498   25.9744  -82.4336 C.3       6 UNK        -0.1791 
     42 N         -75.2457   27.2964  -80.4219 N.am      6 UNK        -0.4762 
     43 C         -74.6652   28.2464  -79.6748 C.2       6 UNK         0.5007 
     44 O         -73.5788   28.7554  -79.9497 O.2       6 UNK        -0.5032 
     45 CA        -75.3668   28.6327  -78.3563 C.3       5 UNK         0.0783 
     46 C46       -75.8164   30.1137  -78.3092 C.3       11 UNK        -0.0857 
     47 S47       -76.0140   30.6746  -76.5818 S.3       11 UNK        -0.2512 
     48 C48       -77.7871   30.3610  -76.2774 C.3       11 UNK         0.0225 
     49 N         -76.4625   27.7152  -78.0084 N.am      5 UNK        -0.4615 
     50 C         -76.3021   26.5085  -77.4555 C.2       4 UNK         0.5053 
     51 O         -75.2027   26.0251  -77.1757 O.2       4 UNK        -0.5105 
     52 CA        -77.5764   25.6717  -77.2793 C.3       4 UNK         0.0263 
     53 CB        -77.8607   24.8756  -78.5642 C.3       4 UNK        -0.1981 
     54 N         -77.4551   24.7376  -76.1612 N.am      4 UNK        -0.4224 
     55 C         -77.5626   25.0829  -74.8736 C.2       3 UNK         0.4895 
     56 O         -77.8076   26.2254  -74.4775 O.2       3 UNK        -0.5091 
     57 CA        -77.3503   23.9594  -73.8549 C.3       3 UNK         0.0250 
     58 CB        -75.8508   23.7122  -73.6098 C.3       3 UNK        -0.1996 
     59 N         -78.0188   24.3358  -72.6146 N.am      3 UNK        -0.4254 
     60 C         -78.3886   23.5052  -71.6335 C.2       2 UNK         0.5004 
     61 O         -78.1487   22.2972  -71.6341 O.2       2 UNK        -0.5226 
     62 CA        -79.1672   24.1128  -70.4514 C.3       2 UNK         0.0269 
     63 CB        -78.2521   24.2960  -69.2297 C.3       2 UNK        -0.1926 
     64 N         -79.8200   25.3909  -70.7583 N.am      2 UNK        -0.4687 
     65 C         -80.9081   25.5249  -71.5331 C.2       1 UNK         0.5165 
     66 O         -81.4536   24.5753  -72.0970 O.2       1 UNK        -0.5079 
     67 H67       -80.4669   28.4875  -67.5840 H         1 UNK         0.0900 
     68 H68       -81.4549   29.7705  -68.2876 H         1 UNK         0.0900 
     69 H69       -79.8685   29.3960  -68.9684 H         1 UNK         0.0900 
     70 H70       -80.2527   28.4955  -71.0100 H         1 UNK         0.2959 
     71 H71       -82.5760   26.8360  -71.5730 H         1 UNK         0.1079 
     72 H72       -80.2031   27.7450  -73.2914 H         1 UNK         0.0837 
     73 H73       -81.4357   26.6779  -73.8763 H         1 UNK         0.0837 
     74 H74       -81.7667   30.4022  -71.8776 H         1 UNK         0.0685 
     75 H75       -82.0476   31.2202  -73.3915 H         1 UNK         0.0685 
     76 H76       -80.3072   30.4295  -75.3612 H         1 UNK         0.1434 
     77 H77       -76.2635   30.2812  -73.9097 H         1 UNK         0.1329 
     78 H78       -79.5231   30.3983  -71.1506 H         1 UNK         0.1335 
     79 H79       -75.7903   30.3386  -71.5876 H         1 UNK         0.0680 
     80 H80       -76.9907   31.1227  -70.5920 H         1 UNK         0.0680 
     81 H81       -76.9372   26.5286  -71.2062 H         1 UNK         0.1032 
     82 H82       -76.8624   27.7381  -72.4346 H         1 UNK         0.1032 
     83 H83       -74.4724   28.2063  -71.0095 H         1 UNK         0.0461 
     84 H84       -72.9499   24.7000  -70.5631 H         1 UNK         0.3453 
     85 H85       -72.8256   25.7585  -71.9474 H         1 UNK         0.3453 
     86 H86       -74.6223   26.4769  -73.4109 H         1 UNK         0.2984 
     87 H87       -74.5059   28.2277  -75.4918 H         1 UNK         0.0554 
     88 H88       -72.3793   28.9626  -76.6619 H         1 UNK         0.0847 
     89 H89       -71.6008   29.1268  -75.0907 H         1 UNK         0.0847 
     90 H90       -72.9661   30.1510  -75.5099 H         1 UNK         0.0847 
     91 H91       -73.6849   26.2454  -76.0132 H         1 UNK         0.3141 
     92 H92       -70.6445   24.6678  -75.6239 H         1 UNK         0.0743 
     93 H93       -71.3493   23.8798  -73.3796 H         1 UNK         0.0784 
     94 H94       -72.9881   23.6185  -73.9505 H         1 UNK         0.0784 
     95 H95       -71.6610   22.6468  -74.5862 H         1 UNK         0.0784 
     96 H96       -73.1504   23.5653  -76.4538 H         1 UNK         0.3213 
     97 H97       -72.2664   23.6320  -79.6342 H         1 UNK         0.0855 
     98 H98       -74.7482   23.3378  -77.8408 H         1 UNK         0.0814 
     99 H99       -73.4560   22.1472  -78.0303 H         1 UNK         0.0814 
    100 H100      -74.4949   22.5364  -79.3832 H         1 UNK         0.0814 
    101 H101      -74.3561   25.6773  -79.0667 H         1 UNK         0.3105 
    102 H102      -73.9562   27.2426  -82.0711 H         1 UNK         0.0547 
    103 H103      -76.2977   25.2636  -81.9192 H         1 UNK         0.0837 
    104 H104      -76.2778   26.7600  -82.8540 H         1 UNK         0.0837 
    105 H105      -75.1907   25.4477  -83.2714 H         1 UNK         0.0837 
    106 H106      -76.1539   26.9593  -80.1394 H         1 UNK         0.3020 
    107 H107      -74.5741   28.5124  -77.6215 H         1 UNK         0.1245 
    108 H108      -76.7383   30.2714  -78.8716 H         1 UNK         0.0781 
    109 H109      -75.0668   30.7627  -78.7664 H         1 UNK         0.0781 
    110 H110      -78.3618   31.0960  -76.8433 H         1 UNK         0.0836 
    111 H111      -78.0566   29.3844  -76.6758 H         1 UNK         0.0836 
    112 H112      -77.3941   28.0264  -78.2416 H         1 UNK         0.3022 
    113 H113      -78.4172   26.3415  -77.0843 H         1 UNK         0.0747 
    114 H114      -78.0222   25.5401  -79.4138 H         1 UNK         0.0793 
    115 H115      -78.7596   24.2671  -78.4615 H         1 UNK         0.0793 
    116 H116      -77.0351   24.2105  -78.8221 H         1 UNK         0.0793 
    117 H117      -77.2157   23.7853  -76.3945 H         1 UNK         0.3047 
    118 H118      -77.8144   23.0495  -74.2420 H         1 UNK         0.0822 
    119 H119      -75.3389   23.4645  -74.5402 H         1 UNK         0.0807 
    120 H120      -75.6905   22.8806  -72.9235 H         1 UNK         0.0807 
    121 H121      -75.3628   24.5886  -73.1870 H         1 UNK         0.0807 
    122 H122      -78.2999   25.3073  -72.5778 H         1 UNK         0.2946 
    123 H123      -79.9446   23.3928  -70.1848 H         1 UNK         0.1144 
    124 H124      -77.4700   25.0323  -69.4128 H         1 UNK         0.0793 
    125 H125      -77.7597   23.3590  -68.9657 H         1 UNK         0.0793 
    126 H126      -78.8180   24.6192  -68.3558 H         1 UNK         0.0793 
    127 H127      -79.4471   26.2172  -70.3138 H         1 UNK         0.2896 
@<TRIPOS>BOND
     1    1    2 1    
     2    1   67 1    
     3    1   68 1    
     4    1   69 1    
     5    2    3 2    
     6    2    4 am   BACKBONE|DICT|INTERRES
     7    4    5 1    
     8    4   70 1    
     9    5    6 1    
    10    5   65 1    
    11    5   71 1    
    12    6    7 1    
    13    6   72 1    
    14    6   73 1    
    15    7    8 1    
    16    8    9 1    
    17    8   74 1    
    18    8   75 1    
    19    9   10 ar   
    20    9   14 ar   
    21   10   11 ar   
    22   10   76 1    
    23   11   12 ar   
    24   11   48 1    
    25   12   13 ar   
    26   12   77 1    
    27   13   14 ar   
    28   13   15 1    
    29   14   78 1    
    30   15   16 1    
    31   15   79 1    
    32   15   80 1    
    33   16   17 1    
    34   17   18 1    
    35   17   81 1    
    36   17   82 1    
    37   18   19 1    
    38   18   22 1    
    39   18   83 1    
    40   19   20 am   BACKBONE|DICT|INTERRES
    41   19   21 2    
    42   20   84 1    
    43   20   85 1    
    44   22   23 am   BACKBONE|DICT|INTERRES
    45   22   86 1    
    46   23   24 2    
    47   23   25 1    
    48   25   26 1    
    49   25   27 1    
    50   25   87 1    
    51   26   88 1    
    52   26   89 1    
    53   26   90 1    
    54   27   28 am   BACKBONE|DICT|INTERRES
    55   27   91 1    
    56   28   29 2    
    57   28   30 1    
    58   30   31 1    
    59   30   32 1    
    60   30   92 1    
    61   31   93 1    
    62   31   94 1    
    63   31   95 1    
    64   32   33 am   BACKBONE|DICT|INTERRES
    65   32   96 1    
    66   33   34 2    
    67   33   35 1    
    68   35   36 1    
    69   35   37 1    
    70   35   97 1    
    71   36   98 1    
    72   36   99 1    
    73   36  100 1    
    74   37   38 am   BACKBONE|DICT|INTERRES
    75   37  101 1    
    76   38   39 2    
    77   38   40 1    
    78   40   41 1    
    79   40   42 1    
    80   40  102 1    
    81   41  103 1    
    82   41  104 1    
    83   41  105 1    
    84   42   43 am   BACKBONE|DICT|INTERRES
    85   42  106 1    
    86   43   44 2    
    87   43   45 1    
    88   45   46 1    
    89   45   49 1    
    90   45  107 1    
    91   46   47 1    
    92   46  108 1    
    93   46  109 1    
    94   47   48 1    
    95   48  110 1    
    96   48  111 1    
    97   49   50 am   BACKBONE|DICT|INTERRES
    98   49  112 1    
    99   50   51 2    
   100   50   52 1    
   101   52   53 1    
   102   52   54 1    
   103   52  113 1    
   104   53  114 1    
   105   53  115 1    
   106   53  116 1    
   107   54   55 am   BACKBONE|DICT|INTERRES
   108   54  117 1    
   109   55   56 2    
   110   55   57 1    
   111   57   58 1    
   112   57   59 1    
   113   57  118 1    
   114   58  119 1    
   115   58  120 1    
   116   58  121 1    
   117   59   60 am   BACKBONE|DICT|INTERRES
   118   59  122 1    
   119   60   61 2    
   120   60   62 1    
   121   62   63 1    
   122   62   64 1    
   123   62  123 1    
   124   63  124 1    
   125   63  125 1    
   126   63  126 1    
   127   64   65 am   BACKBONE|DICT|INTERRES
   128   64  127 1    
   129   65   66 2    
@<TRIPOS>SUBSTRUCTURE
     1 UNK         1 GROUP             0       ****    0 ROOT    
