@<TRIPOS>MOLECULE
3R135
127   129    1
SMALL
USER_CHARGES


@<TRIPOS>ATOM
      1 CA        -78.3269   27.0279  -78.5861 C.3       0 UNK        -0.1998 
      2 C         -78.7314   26.8800  -77.1277 C.2       0 UNK         0.4909 
      3 O         -78.6361   25.7814  -76.5738 O.2       0 UNK        -0.5240 
      4 N         -79.1876   27.9754  -76.5045 N.am      1 UNK        -0.4739 
      5 CA        -79.6256   28.0215  -75.1071 C.3       1 UNK         0.0864 
      6 C6        -79.9287   29.4613  -74.6227 C.3       11 UNK        -0.0881 
      7 S7        -78.4430   30.5179  -74.5542 S.3       11 UNK        -0.2682 
      8 C8        -78.1057   30.5966  -72.7633 C.3       11 UNK         0.0289 
      9 C9        -77.3177   29.3899  -72.2689 C.ar      11 UNK        -0.0687 
     10 C10       -77.9700   28.1930  -71.9583 C.ar      11 UNK        -0.0823 
     11 C11       -77.2515   27.0780  -71.5131 C.ar      11 UNK        -0.0830 
     12 C12       -75.8668   27.1873  -71.3330 C.ar      11 UNK        -0.1021 
     13 C13       -75.2043   28.3837  -71.6222 C.ar      11 UNK        -0.0753 
     14 C14       -75.9336   29.4781  -72.0962 C.ar      11 UNK        -0.0933 
     15 C15       -73.7043   28.5095  -71.4081 C.3       11 UNK         0.0166 
     16 S16       -72.8123   28.4500  -72.9902 S.3       11 UNK        -0.2615 
     17 C17       -71.1214   28.9290  -72.4851 C.3       11 UNK        -0.0865 
     18 CA        -70.9744   30.4087  -72.0268 C.3       10 UNK         0.0862 
     19 C         -69.4852   30.7674  -71.7521 C.2       10 UNK         0.5551 
     20 N         -68.9050   31.7577  -72.4189 N.am      10 UNK        -0.7319 
     21 O         -68.8475   30.1370  -70.9123 O.2       10 UNK        -0.5018 
     22 N         -71.6810   31.3358  -72.9242 N.am      10 UNK        -0.4509 
     23 C         -72.1633   32.5356  -72.5866 C.2       10 UNK         0.4899 
     24 O         -71.9910   33.0559  -71.4843 O.2       10 UNK        -0.4839 
     25 CA        -73.0212   33.2724  -73.6341 C.3       9 UNK         0.0222 
     26 CB        -72.1454   34.1285  -74.5703 C.3       9 UNK        -0.1966 
     27 N         -73.9463   32.4038  -74.3838 N.am      9 UNK        -0.4218 
     28 C         -73.6586   31.4527  -75.2838 C.2       9 UNK         0.5020 
     29 O         -72.5157   31.1830  -75.6663 O.2       9 UNK        -0.5274 
     30 CA        -74.8473   30.6544  -75.8282 C.3       8 UNK         0.0270 
     31 CB        -75.6558   31.4735  -76.8494 C.3       8 UNK        -0.1976 
     32 N         -74.3379   29.4476  -76.4702 N.am      8 UNK        -0.4313 
     33 C         -74.8738   28.2304  -76.3647 C.2       8 UNK         0.5041 
     34 O         -75.9096   27.9758  -75.7460 O.2       8 UNK        -0.5577 
     35 CA        -74.1224   27.0988  -77.0726 C.3       7 UNK         0.0284 
     36 CB        -72.8527   26.6969  -76.2983 C.3       7 UNK        -0.1958 
     37 N         -75.0268   25.9613  -77.1649 N.am      7 UNK        -0.4454 
     38 C         -74.9425   24.9394  -78.0201 C.2       7 UNK         0.5089 
     39 O         -74.0703   24.8432  -78.8855 O.2       7 UNK        -0.5125 
     40 CA        -76.0222   23.8464  -77.8788 C.3       6 UNK         0.0408 
     41 CB        -75.5945   22.4999  -78.4990 C.3       6 UNK        -0.1791 
     42 N         -76.4833   23.6587  -76.4957 N.am      6 UNK        -0.4762 
     43 C         -75.7403   23.2959  -75.4363 C.2       6 UNK         0.5007 
     44 O         -74.5292   23.0775  -75.4827 O.2       6 UNK        -0.5032 
     45 CA        -76.4829   23.1214  -74.0982 C.3       5 UNK         0.0783 
     46 C46       -76.7155   24.4842  -73.3983 C.3       11 UNK        -0.0857 
     47 S47       -77.1191   24.2483  -71.6351 S.3       11 UNK        -0.2512 
     48 C48       -78.0035   25.7858  -71.1981 C.3       11 UNK         0.0225 
     49 N         -77.7249   22.3627  -74.2824 N.am      5 UNK        -0.4615 
     50 C         -77.7804   21.0507  -74.5584 C.2       4 UNK         0.5053 
     51 O         -76.7950   20.3132  -74.5849 O.2       4 UNK        -0.5105 
     52 CA        -79.1687   20.4602  -74.8688 C.3       4 UNK         0.0263 
     53 CB        -79.8303   19.9357  -73.5844 C.3       4 UNK        -0.1981 
     54 N         -80.0594   21.4296  -75.5090 N.am      4 UNK        -0.4224 
     55 C         -79.8990   21.9347  -76.7392 C.2       3 UNK         0.4895 
     56 O         -79.0627   21.5231  -77.5423 O.2       3 UNK        -0.5091 
     57 CA        -80.7700   23.1437  -77.1208 C.3       3 UNK         0.0250 
     58 CB        -82.0857   22.7091  -77.7955 C.3       3 UNK        -0.1996 
     59 N         -80.9911   24.0816  -76.0074 N.am      3 UNK        -0.4254 
     60 C         -81.7500   23.9292  -74.9096 C.2       2 UNK         0.5004 
     61 O         -82.4188   22.9195  -74.6889 O.2       2 UNK        -0.5226 
     62 CA        -81.7011   25.0349  -73.8354 C.3       2 UNK         0.0269 
     63 CB        -81.4415   24.4336  -72.4414 C.3       2 UNK        -0.1926 
     64 N         -80.6829   26.0559  -74.1006 N.am      2 UNK        -0.4687 
     65 C         -80.8545   27.1158  -74.8995 C.2       1 UNK         0.5165 
     66 O         -81.9115   27.3755  -75.4779 O.2       1 UNK        -0.5079 
     67 H67       -78.7008   26.1860  -79.1679 H         1 UNK         0.0900 
     68 H68       -77.2418   27.0517  -78.6744 H         1 UNK         0.0900 
     69 H69       -78.7240   27.9435  -79.0237 H         1 UNK         0.0900 
     70 H70       -79.2345   28.8518  -77.0029 H         1 UNK         0.2959 
     71 H71       -78.7973   27.6283  -74.5147 H         1 UNK         0.1079 
     72 H72       -80.3984   29.4494  -73.6376 H         1 UNK         0.0837 
     73 H73       -80.6532   29.9387  -75.2853 H         1 UNK         0.0837 
     74 H74       -77.5441   31.5102  -72.5627 H         1 UNK         0.0685 
     75 H75       -79.0380   30.6951  -72.2056 H         1 UNK         0.0685 
     76 H76       -79.0434   28.1311  -72.0666 H         1 UNK         0.1434 
     77 H77       -75.3022   26.3413  -70.9663 H         1 UNK         0.1329 
     78 H78       -75.4184   30.4007  -72.3245 H         1 UNK         0.1335 
     79 H79       -73.5013   29.4529  -70.9009 H         1 UNK         0.0680 
     80 H80       -73.3351   27.7175  -70.7547 H         1 UNK         0.0680 
     81 H81       -70.4668   28.7368  -73.3374 H         1 UNK         0.1032 
     82 H82       -70.7898   28.2519  -71.6956 H         1 UNK         0.1032 
     83 H83       -71.4595   30.4881  -71.0528 H         1 UNK         0.0461 
     84 H84       -69.4262   32.2788  -73.1055 H         1 UNK         0.3453 
     85 H85       -67.9412   31.9854  -72.2318 H         1 UNK         0.3453 
     86 H86       -71.8529   31.0081  -73.8702 H         1 UNK         0.2984 
     87 H87       -73.6619   33.9589  -73.0782 H         1 UNK         0.0554 
     88 H88       -72.7542   34.6949  -75.2749 H         1 UNK         0.0847 
     89 H89       -71.4428   33.5243  -75.1447 H         1 UNK         0.0847 
     90 H90       -71.5575   34.8483  -73.9992 H         1 UNK         0.0847 
     91 H91       -74.9201   32.5264  -74.1423 H         1 UNK         0.3141 
     92 H92       -75.4843   30.3841  -74.9837 H         1 UNK         0.0743 
     93 H93       -75.0416   31.7844  -77.6955 H         1 UNK         0.0784 
     94 H94       -76.4948   30.8956  -77.2380 H         1 UNK         0.0784 
     95 H95       -76.0705   32.3737  -76.3944 H         1 UNK         0.0784 
     96 H96       -73.4288   29.5620  -76.9010 H         1 UNK         0.3213 
     97 H97       -73.8579   27.4320  -78.0785 H         1 UNK         0.0855 
     98 H98       -72.3045   25.9083  -76.8138 H         1 UNK         0.0814 
     99 H99       -73.0947   26.3348  -75.2981 H         1 UNK         0.0814 
    100 H100      -72.1729   27.5420  -76.1836 H         1 UNK         0.0814 
    101 H101      -75.8079   26.0143  -76.5196 H         1 UNK         0.3105 
    102 H102      -76.8887   24.2032  -78.4371 H         1 UNK         0.0547 
    103 H103      -74.6905   22.1079  -78.0323 H         1 UNK         0.0837 
    104 H104      -76.3783   21.7496  -78.3949 H         1 UNK         0.0837 
    105 H105      -75.3898   22.6068  -79.5648 H         1 UNK         0.0837 
    106 H106      -77.4573   23.8877  -76.3410 H         1 UNK         0.3020 
    107 H107      -75.8223   22.5261  -73.4624 H         1 UNK         0.1245 
    108 H108      -75.8181   25.1051  -73.4462 H         1 UNK         0.0781 
    109 H109      -77.5055   25.0516  -73.8934 H         1 UNK         0.0781 
    110 H110      -78.9685   25.7788  -71.7023 H         1 UNK         0.0836 
    111 H111      -78.2201   25.7660  -70.1293 H         1 UNK         0.0836 
    112 H112      -78.5852   22.8860  -74.2583 H         1 UNK         0.3022 
    113 H113      -79.0289   19.6218  -75.5546 H         1 UNK         0.0747 
    114 H114      -80.7851   19.4550  -73.7983 H         1 UNK         0.0793 
    115 H115      -79.1975   19.1942  -73.0947 H         1 UNK         0.0793 
    116 H116      -80.0111   20.7365  -72.8660 H         1 UNK         0.0793 
    117 H117      -80.8297   21.7956  -74.9572 H         1 UNK         0.3047 
    118 H118      -80.1998   23.7093  -77.8600 H         1 UNK         0.0822 
    119 H119      -82.6837   23.5714  -78.0901 H         1 UNK         0.0807 
    120 H120      -82.6961   22.0825  -77.1450 H         1 UNK         0.0807 
    121 H121      -81.8830   22.1313  -78.6982 H         1 UNK         0.0807 
    122 H122      -80.4142   24.9154  -76.0576 H         1 UNK         0.2946 
    123 H123      -82.6870   25.5059  -73.8236 H         1 UNK         0.1144 
    124 H124      -81.4338   25.2051  -71.6713 H         1 UNK         0.0793 
    125 H125      -80.4904   23.9014  -72.3982 H         1 UNK         0.0793 
    126 H126      -82.2226   23.7228  -72.1676 H         1 UNK         0.0793 
    127 H127      -79.7697   25.8916  -73.7054 H         1 UNK         0.2896 
@<TRIPOS>BOND
     1    1    2 1    
     2    1   67 1    
     3    1   68 1    
     4    1   69 1    
     5    2    3 2    
     6    2    4 am   BACKBONE|DICT|INTERRES
     7    4    5 1    
     8    4   70 1    
     9    5    6 1    
    10    5   65 1    
    11    5   71 1    
    12    6    7 1    
    13    6   72 1    
    14    6   73 1    
    15    7    8 1    
    16    8    9 1    
    17    8   74 1    
    18    8   75 1    
    19    9   10 ar   
    20    9   14 ar   
    21   10   11 ar   
    22   10   76 1    
    23   11   12 ar   
    24   11   48 1    
    25   12   13 ar   
    26   12   77 1    
    27   13   14 ar   
    28   13   15 1    
    29   14   78 1    
    30   15   16 1    
    31   15   79 1    
    32   15   80 1    
    33   16   17 1    
    34   17   18 1    
    35   17   81 1    
    36   17   82 1    
    37   18   19 1    
    38   18   22 1    
    39   18   83 1    
    40   19   20 am   BACKBONE|DICT|INTERRES
    41   19   21 2    
    42   20   84 1    
    43   20   85 1    
    44   22   23 am   BACKBONE|DICT|INTERRES
    45   22   86 1    
    46   23   24 2    
    47   23   25 1    
    48   25   26 1    
    49   25   27 1    
    50   25   87 1    
    51   26   88 1    
    52   26   89 1    
    53   26   90 1    
    54   27   28 am   BACKBONE|DICT|INTERRES
    55   27   91 1    
    56   28   29 2    
    57   28   30 1    
    58   30   31 1    
    59   30   32 1    
    60   30   92 1    
    61   31   93 1    
    62   31   94 1    
    63   31   95 1    
    64   32   33 am   BACKBONE|DICT|INTERRES
    65   32   96 1    
    66   33   34 2    
    67   33   35 1    
    68   35   36 1    
    69   35   37 1    
    70   35   97 1    
    71   36   98 1    
    72   36   99 1    
    73   36  100 1    
    74   37   38 am   BACKBONE|DICT|INTERRES
    75   37  101 1    
    76   38   39 2    
    77   38   40 1    
    78   40   41 1    
    79   40   42 1    
    80   40  102 1    
    81   41  103 1    
    82   41  104 1    
    83   41  105 1    
    84   42   43 am   BACKBONE|DICT|INTERRES
    85   42  106 1    
    86   43   44 2    
    87   43   45 1    
    88   45   46 1    
    89   45   49 1    
    90   45  107 1    
    91   46   47 1    
    92   46  108 1    
    93   46  109 1    
    94   47   48 1    
    95   48  110 1    
    96   48  111 1    
    97   49   50 am   BACKBONE|DICT|INTERRES
    98   49  112 1    
    99   50   51 2    
   100   50   52 1    
   101   52   53 1    
   102   52   54 1    
   103   52  113 1    
   104   53  114 1    
   105   53  115 1    
   106   53  116 1    
   107   54   55 am   BACKBONE|DICT|INTERRES
   108   54  117 1    
   109   55   56 2    
   110   55   57 1    
   111   57   58 1    
   112   57   59 1    
   113   57  118 1    
   114   58  119 1    
   115   58  120 1    
   116   58  121 1    
   117   59   60 am   BACKBONE|DICT|INTERRES
   118   59  122 1    
   119   60   61 2    
   120   60   62 1    
   121   62   63 1    
   122   62   64 1    
   123   62  123 1    
   124   63  124 1    
   125   63  125 1    
   126   63  126 1    
   127   64   65 am   BACKBONE|DICT|INTERRES
   128   64  127 1    
   129   65   66 2    
@<TRIPOS>SUBSTRUCTURE
     1 UNK         1 GROUP             0       ****    0 ROOT    
