@<TRIPOS>MOLECULE
3R135
127   129    1
SMALL
USER_CHARGES


@<TRIPOS>ATOM
      1 CA        -77.4845   28.7017  -74.9155 C.3       0 UNK        -0.1998 
      2 C         -78.3959   29.9220  -74.9400 C.2       0 UNK         0.4909 
      3 O         -77.9994   30.9484  -75.4885 O.2       0 UNK        -0.5240 
      4 N         -79.5990   29.8805  -74.3508 N.am      1 UNK        -0.4739 
      5 CA        -80.1882   28.7611  -73.6067 C.3       1 UNK         0.0864 
      6 C6        -81.3585   29.2594  -72.7134 C.3       11 UNK        -0.0881 
      7 S7        -81.7668   28.1167  -71.3443 S.3       11 UNK        -0.2682 
      8 C8        -80.8288   28.8258  -69.9518 C.3       11 UNK         0.0289 
      9 C9        -79.3398   28.8686  -70.2554 C.ar      11 UNK        -0.0687 
     10 C10       -78.5868   27.6930  -70.2532 C.ar      11 UNK        -0.0823 
     11 C11       -77.2385   27.7123  -70.6222 C.ar      11 UNK        -0.0830 
     12 C12       -76.6391   28.9278  -70.9720 C.ar      11 UNK        -0.1021 
     13 C13       -77.3730   30.1233  -70.9338 C.ar      11 UNK        -0.0753 
     14 C14       -78.7240   30.0786  -70.5809 C.ar      11 UNK        -0.0933 
     15 C15       -76.7709   31.4808  -71.2937 C.3       11 UNK         0.0166 
     16 S16       -74.9680   31.6134  -71.0370 S.3       11 UNK        -0.2615 
     17 C17       -74.4320   32.0772  -72.7161 C.3       11 UNK        -0.0865 
     18 CA        -74.4159   30.8687  -73.6845 C.3       10 UNK         0.0862 
     19 C         -74.1310   31.3441  -75.1347 C.2       10 UNK         0.5551 
     20 N         -75.1616   31.5585  -75.9413 N.am      10 UNK        -0.7319 
     21 O         -72.9838   31.5657  -75.5155 O.2       10 UNK        -0.5018 
     22 N         -73.4669   29.8354  -73.2426 N.am      10 UNK        -0.4509 
     23 C         -73.4367   28.5947  -73.7347 C.2       10 UNK         0.4899 
     24 O         -74.2826   28.1442  -74.5104 O.2       10 UNK        -0.4839 
     25 CA        -72.2754   27.6969  -73.2879 C.3       9 UNK         0.0222 
     26 CB        -72.6998   26.7848  -72.1272 C.3       9 UNK        -0.1966 
     27 N         -71.9191   26.8784  -74.4396 N.am      9 UNK        -0.4218 
     28 C         -70.8475   27.0740  -75.2182 C.2       9 UNK         0.5020 
     29 O         -69.8493   27.7135  -74.8846 O.2       9 UNK        -0.5274 
     30 CA        -70.9635   26.5313  -76.6506 C.3       8 UNK         0.0270 
     31 CB        -70.7436   25.0101  -76.6958 C.3       8 UNK        -0.1976 
     32 N         -72.2894   26.8595  -77.1771 N.am      8 UNK        -0.4313 
     33 C         -72.6401   28.0560  -77.6745 C.2       8 UNK         0.5041 
     34 O         -71.8241   28.9315  -77.9661 O.2       8 UNK        -0.5577 
     35 CA        -74.1499   28.3471  -77.8304 C.3       7 UNK         0.0284 
     36 CB        -74.4825   29.1182  -79.1254 C.3       7 UNK        -0.1958 
     37 N         -74.9944   27.1568  -77.6605 N.am      7 UNK        -0.4454 
     38 C         -75.0574   26.0914  -78.4704 C.2       7 UNK         0.5089 
     39 O         -74.5327   26.0478  -79.5836 O.2       7 UNK        -0.5125 
     40 CA        -75.7776   24.8379  -77.9383 C.3       6 UNK         0.0408 
     41 CB        -74.9638   23.5688  -78.2744 C.3       6 UNK        -0.1791 
     42 N         -76.1138   24.8468  -76.5051 N.am      6 UNK        -0.4762 
     43 C         -75.2728   24.8654  -75.4562 C.2       6 UNK         0.5007 
     44 O         -74.0739   25.1408  -75.5412 O.2       6 UNK        -0.5032 
     45 CA        -75.8694   24.4440  -74.0978 C.3       5 UNK         0.0783 
     46 C46       -76.5008   25.6407  -73.3453 C.3       11 UNK        -0.0857 
     47 S47       -77.1308   25.1482  -71.7061 S.3       11 UNK        -0.2512 
     48 C48       -76.4306   26.4211  -70.6053 C.3       11 UNK         0.0225 
     49 N         -76.8385   23.3611  -74.2992 N.am      5 UNK        -0.4615 
     50 C         -76.5322   22.0635  -74.4287 C.2       4 UNK         0.5053 
     51 O         -75.3906   21.6158  -74.3216 O.2       4 UNK        -0.5105 
     52 CA        -77.6960   21.0986  -74.7268 C.3       4 UNK         0.0263 
     53 CB        -78.2888   20.5556  -73.4164 C.3       4 UNK        -0.1981 
     54 N         -78.7605   21.7269  -75.5138 N.am      4 UNK        -0.4224 
     55 C         -78.6720   22.0161  -76.8206 C.2       3 UNK         0.4895 
     56 O         -77.7466   21.6414  -77.5385 O.2       3 UNK        -0.5091 
     57 CA        -79.7893   22.8817  -77.4381 C.3       3 UNK         0.0250 
     58 CB        -80.7351   22.0141  -78.2846 C.3       3 UNK        -0.1996 
     59 N         -80.5793   23.6418  -76.4613 N.am      3 UNK        -0.4254 
     60 C         -80.1017   24.6052  -75.6615 C.2       2 UNK         0.5004 
     61 O         -78.9241   24.9732  -75.6641 O.2       2 UNK        -0.5226 
     62 CA        -81.0925   25.1642  -74.6287 C.3       2 UNK         0.0269 
     63 CB        -81.3492   24.1240  -73.5233 C.3       2 UNK        -0.1926 
     64 N         -80.6170   26.3894  -73.9885 N.am      2 UNK        -0.4687 
     65 C         -80.6394   27.6112  -74.5328 C.2       1 UNK         0.5165 
     66 O         -81.0316   27.8506  -75.6774 O.2       1 UNK        -0.5079 
     67 H67       -77.1801   28.4707  -73.8956 H         1 UNK         0.0900 
     68 H68       -76.5836   28.8973  -75.4950 H         1 UNK         0.0900 
     69 H69       -77.9677   27.8329  -75.3597 H         1 UNK         0.0900 
     70 H70       -80.1891   30.6958  -74.4301 H         1 UNK         0.2959 
     71 H71       -79.4032   28.3704  -72.9577 H         1 UNK         0.1079 
     72 H72       -81.1162   30.2301  -72.2781 H         1 UNK         0.0837 
     73 H73       -82.2583   29.4287  -73.3085 H         1 UNK         0.0837 
     74 H74       -81.0025   28.2218  -69.0601 H         1 UNK         0.0685 
     75 H75       -81.2115   29.8228  -69.7278 H         1 UNK         0.0685 
     76 H76       -79.0591   26.7555  -69.9921 H         1 UNK         0.1434 
     77 H77       -75.5980   28.9394  -71.2618 H         1 UNK         0.1329 
     78 H78       -79.3059   30.9903  -70.5784 H         1 UNK         0.1335 
     79 H79       -77.0291   31.6999  -72.3304 H         1 UNK         0.0680 
     80 H80       -77.2420   32.2612  -70.6939 H         1 UNK         0.0680 
     81 H81       -73.4394   32.5267  -72.6498 H         1 UNK         0.1032 
     82 H82       -75.0905   32.8661  -73.0858 H         1 UNK         0.1032 
     83 H83       -75.4105   30.4191  -73.6743 H         1 UNK         0.0461 
     84 H84       -74.9831   31.8961  -76.8732 H         1 UNK         0.3453 
     85 H85       -76.1206   31.3919  -75.6507 H         1 UNK         0.3453 
     86 H86       -72.7379   30.1393  -72.6144 H         1 UNK         0.2984 
     87 H87       -71.4349   28.3177  -72.9706 H         1 UNK         0.0554 
     88 H88       -71.8716   26.1563  -71.7997 H         1 UNK         0.0847 
     89 H89       -73.5221   26.1270  -72.4086 H         1 UNK         0.0847 
     90 H90       -73.0219   27.3715  -71.2661 H         1 UNK         0.0847 
     91 H91       -72.6953   26.3521  -74.8324 H         1 UNK         0.3141 
     92 H92       -70.1991   27.0095  -77.2669 H         1 UNK         0.0743 
     93 H93       -71.4725   24.4714  -76.0891 H         1 UNK         0.0784 
     94 H94       -70.8143   24.6317  -77.7157 H         1 UNK         0.0784 
     95 H95       -69.7525   24.7506  -76.3213 H         1 UNK         0.0784 
     96 H96       -73.0355   26.2177  -76.9315 H         1 UNK         0.3213 
     97 H97       -74.4054   29.0030  -76.9991 H         1 UNK         0.0855 
     98 H98       -73.9850   30.0887  -79.1353 H         1 UNK         0.0814 
     99 H99       -75.5528   29.3036  -79.2136 H         1 UNK         0.0814 
    100 H100      -74.1563   28.5828  -80.0170 H         1 UNK         0.0814 
    101 H101      -75.4315   27.0654  -76.7532 H         1 UNK         0.3105 
    102 H102      -76.7290   24.7780  -78.4686 H         1 UNK         0.0547 
    103 H103      -74.8937   23.4204  -79.3525 H         1 UNK         0.0837 
    104 H104      -73.9453   23.6288  -77.8886 H         1 UNK         0.0837 
    105 H105      -75.4193   22.6728  -77.8566 H         1 UNK         0.0837 
    106 H106      -77.1010   24.7181  -76.2954 H         1 UNK         0.3020 
    107 H107      -75.0418   24.0645  -73.4937 H         1 UNK         0.1245 
    108 H108      -77.3362   26.0535  -73.9086 H         1 UNK         0.0781 
    109 H109      -75.7785   26.4479  -73.2275 H         1 UNK         0.0781 
    110 H110      -75.3871   26.6012  -70.8624 H         1 UNK         0.0836 
    111 H111      -76.4264   26.0314  -69.5865 H         1 UNK         0.0836 
    112 H112      -77.7943   23.6580  -74.4433 H         1 UNK         0.3022 
    113 H113      -77.2940   20.2573  -75.2959 H         1 UNK         0.0747 
    114 H114      -78.7121   21.3516  -72.8020 H         1 UNK         0.0793 
    115 H115      -79.0741   19.8243  -73.6087 H         1 UNK         0.0793 
    116 H116      -77.5229   20.0572  -72.8203 H         1 UNK         0.0793 
    117 H117      -79.5794   22.0345  -75.0117 H         1 UNK         0.3047 
    118 H118      -79.3027   23.6024  -78.0990 H         1 UNK         0.0822 
    119 H119      -81.4739   22.6232  -78.8060 H         1 UNK         0.0807 
    120 H120      -81.2691   21.2844  -77.6746 H         1 UNK         0.0807 
    121 H121      -80.1821   21.4603  -79.0450 H         1 UNK         0.0807 
    122 H122      -81.5547   23.3892  -76.3857 H         1 UNK         0.2946 
    123 H123      -82.0328   25.3832  -75.1405 H         1 UNK         0.1144 
    124 H124      -81.7702   23.2030  -73.9283 H         1 UNK         0.0793 
    125 H125      -82.0605   24.4992  -72.7867 H         1 UNK         0.0793 
    126 H126      -80.4316   23.8610  -72.9944 H         1 UNK         0.0793 
    127 H127      -80.2783   26.2901  -73.0422 H         1 UNK         0.2896 
@<TRIPOS>BOND
     1    1    2 1    
     2    1   67 1    
     3    1   68 1    
     4    1   69 1    
     5    2    3 2    
     6    2    4 am   BACKBONE|DICT|INTERRES
     7    4    5 1    
     8    4   70 1    
     9    5    6 1    
    10    5   65 1    
    11    5   71 1    
    12    6    7 1    
    13    6   72 1    
    14    6   73 1    
    15    7    8 1    
    16    8    9 1    
    17    8   74 1    
    18    8   75 1    
    19    9   10 ar   
    20    9   14 ar   
    21   10   11 ar   
    22   10   76 1    
    23   11   12 ar   
    24   11   48 1    
    25   12   13 ar   
    26   12   77 1    
    27   13   14 ar   
    28   13   15 1    
    29   14   78 1    
    30   15   16 1    
    31   15   79 1    
    32   15   80 1    
    33   16   17 1    
    34   17   18 1    
    35   17   81 1    
    36   17   82 1    
    37   18   19 1    
    38   18   22 1    
    39   18   83 1    
    40   19   20 am   BACKBONE|DICT|INTERRES
    41   19   21 2    
    42   20   84 1    
    43   20   85 1    
    44   22   23 am   BACKBONE|DICT|INTERRES
    45   22   86 1    
    46   23   24 2    
    47   23   25 1    
    48   25   26 1    
    49   25   27 1    
    50   25   87 1    
    51   26   88 1    
    52   26   89 1    
    53   26   90 1    
    54   27   28 am   BACKBONE|DICT|INTERRES
    55   27   91 1    
    56   28   29 2    
    57   28   30 1    
    58   30   31 1    
    59   30   32 1    
    60   30   92 1    
    61   31   93 1    
    62   31   94 1    
    63   31   95 1    
    64   32   33 am   BACKBONE|DICT|INTERRES
    65   32   96 1    
    66   33   34 2    
    67   33   35 1    
    68   35   36 1    
    69   35   37 1    
    70   35   97 1    
    71   36   98 1    
    72   36   99 1    
    73   36  100 1    
    74   37   38 am   BACKBONE|DICT|INTERRES
    75   37  101 1    
    76   38   39 2    
    77   38   40 1    
    78   40   41 1    
    79   40   42 1    
    80   40  102 1    
    81   41  103 1    
    82   41  104 1    
    83   41  105 1    
    84   42   43 am   BACKBONE|DICT|INTERRES
    85   42  106 1    
    86   43   44 2    
    87   43   45 1    
    88   45   46 1    
    89   45   49 1    
    90   45  107 1    
    91   46   47 1    
    92   46  108 1    
    93   46  109 1    
    94   47   48 1    
    95   48  110 1    
    96   48  111 1    
    97   49   50 am   BACKBONE|DICT|INTERRES
    98   49  112 1    
    99   50   51 2    
   100   50   52 1    
   101   52   53 1    
   102   52   54 1    
   103   52  113 1    
   104   53  114 1    
   105   53  115 1    
   106   53  116 1    
   107   54   55 am   BACKBONE|DICT|INTERRES
   108   54  117 1    
   109   55   56 2    
   110   55   57 1    
   111   57   58 1    
   112   57   59 1    
   113   57  118 1    
   114   58  119 1    
   115   58  120 1    
   116   58  121 1    
   117   59   60 am   BACKBONE|DICT|INTERRES
   118   59  122 1    
   119   60   61 2    
   120   60   62 1    
   121   62   63 1    
   122   62   64 1    
   123   62  123 1    
   124   63  124 1    
   125   63  125 1    
   126   63  126 1    
   127   64   65 am   BACKBONE|DICT|INTERRES
   128   64  127 1    
   129   65   66 2    
@<TRIPOS>SUBSTRUCTURE
     1 UNK         1 GROUP             0       ****    0 ROOT    
