@<TRIPOS>MOLECULE
3R135
127   129    1
SMALL
USER_CHARGES


@<TRIPOS>ATOM
      1 CA        -84.1056   27.4386  -71.0524 C.3       0 UNK        -0.1998 
      2 C         -82.9321   27.3954  -72.0187 C.2       0 UNK         0.4909 
      3 O         -81.9714   26.6660  -71.7738 O.2       0 UNK        -0.5240 
      4 N         -83.0080   28.1724  -73.1090 N.am      1 UNK        -0.4739 
      5 CA        -82.0233   28.3209  -74.1948 C.3       1 UNK         0.0864 
      6 C6        -80.6268   28.8175  -73.7332 C.3       11 UNK        -0.0881 
      7 S7        -80.6883   30.4753  -72.9620 S.3       11 UNK        -0.2682 
      8 C8        -80.4405   30.1269  -71.1875 C.3       11 UNK         0.0289 
      9 C9        -79.0521   29.5740  -70.9031 C.ar      11 UNK        -0.0687 
     10 C10       -78.8744   28.2038  -70.6936 C.ar      11 UNK        -0.0823 
     11 C11       -77.5935   27.6701  -70.5280 C.ar      11 UNK        -0.0830 
     12 C12       -76.4905   28.5283  -70.5086 C.ar      11 UNK        -0.1021 
     13 C13       -76.6586   29.9051  -70.6818 C.ar      11 UNK        -0.0753 
     14 C14       -77.9417   30.4240  -70.8804 C.ar      11 UNK        -0.0933 
     15 C15       -75.4447   30.8193  -70.6856 C.3       11 UNK         0.0166 
     16 S16       -74.7884   31.0118  -72.3700 S.3       11 UNK        -0.2615 
     17 C17       -73.0596   31.4660  -72.0015 C.3       11 UNK        -0.0865 
     18 CA        -72.2677   31.9547  -73.2509 C.3       10 UNK         0.0862 
     19 C         -70.8262   32.4282  -72.8897 C.2       10 UNK         0.5551 
     20 N         -69.8293   32.2236  -73.7421 N.am      10 UNK        -0.7319 
     21 O         -70.6108   33.0208  -71.8349 O.2       10 UNK        -0.5018 
     22 N         -72.3453   31.0303  -74.3998 N.am      10 UNK        -0.4509 
     23 C         -71.9327   29.7563  -74.4291 C.2       10 UNK         0.4899 
     24 O         -71.4027   29.1812  -73.4764 O.2       10 UNK        -0.4839 
     25 CA        -72.1670   29.0305  -75.7664 C.3       9 UNK         0.0222 
     26 CB        -71.1700   29.4893  -76.8507 C.3       9 UNK        -0.1966 
     27 N         -72.1992   27.5695  -75.6420 N.am      9 UNK        -0.4218 
     28 C         -71.1940   26.7108  -75.4131 C.2       9 UNK         0.5020 
     29 O         -70.0086   27.0259  -75.2942 O.2       9 UNK        -0.5274 
     30 CA        -71.5821   25.2224  -75.3318 C.3       8 UNK         0.0270 
     31 CB        -72.1034   24.8706  -73.9287 C.3       8 UNK        -0.1976 
     32 N         -72.5753   24.8368  -76.3402 N.am      8 UNK        -0.4313 
     33 C         -72.3429   24.8130  -77.6614 C.2       8 UNK         0.5041 
     34 O         -71.2424   25.0355  -78.1684 O.2       8 UNK        -0.5577 
     35 CA        -73.5366   24.4970  -78.5788 C.3       7 UNK         0.0284 
     36 CB        -73.7726   22.9805  -78.6641 C.3       7 UNK        -0.1958 
     37 N         -74.7686   25.1702  -78.1613 N.am      7 UNK        -0.4454 
     38 C         -74.9640   26.4967  -78.1992 C.2       7 UNK         0.5089 
     39 O         -74.1503   27.2984  -78.6581 O.2       7 UNK        -0.5125 
     40 CA        -76.2776   27.0256  -77.5941 C.3       6 UNK         0.0408 
     41 CB        -77.4236   26.9447  -78.6139 C.3       6 UNK        -0.1791 
     42 N         -76.6626   26.3303  -76.3633 N.am      6 UNK        -0.4762 
     43 C         -75.9393   26.3239  -75.2336 C.2       6 UNK         0.5007 
     44 O         -74.8824   26.9373  -75.0942 O.2       6 UNK        -0.5032 
     45 CA        -76.4581   25.4451  -74.0822 C.3       5 UNK         0.0783 
     46 C46       -77.5699   26.1822  -73.3042 C.3       11 UNK        -0.0857 
     47 S47       -78.1535   25.2588  -71.8389 S.3       11 UNK        -0.2512 
     48 C48       -77.3884   26.1619  -70.4446 C.3       11 UNK         0.0225 
     49 N         -76.8852   24.1348  -74.5770 N.am      5 UNK        -0.4615 
     50 C         -76.0625   23.2121  -75.0924 C.2       4 UNK         0.5053 
     51 O         -74.8416   23.3492  -75.1680 O.2       4 UNK        -0.5105 
     52 CA        -76.7208   21.9436  -75.6598 C.3       4 UNK         0.0263 
     53 CB        -77.0109   20.9359  -74.5364 C.3       4 UNK        -0.1981 
     54 N         -77.9563   22.2332  -76.3934 N.am      4 UNK        -0.4224 
     55 C         -78.0113   22.9405  -77.5318 C.2       3 UNK         0.4895 
     56 O         -77.0190   23.3695  -78.1184 O.2       3 UNK        -0.5091 
     57 CA        -79.4093   23.2663  -78.0857 C.3       3 UNK         0.0250 
     58 CB        -79.9073   22.1313  -78.9943 C.3       3 UNK        -0.1996 
     59 N         -80.4068   23.5394  -77.0444 N.am      3 UNK        -0.4254 
     60 C         -80.3220   24.5322  -76.1474 C.2       2 UNK         0.5004 
     61 O         -79.3735   25.3180  -76.0875 O.2       2 UNK        -0.5226 
     62 CA        -81.4566   24.6034  -75.1103 C.3       2 UNK         0.0269 
     63 CB        -81.2350   23.5521  -74.0097 C.3       2 UNK        -0.1926 
     64 N         -81.5826   25.9162  -74.4735 N.am      2 UNK        -0.4687 
     65 C         -81.9208   27.0600  -75.0811 C.2       1 UNK         0.5165 
     66 O         -82.1899   27.1415  -76.2809 O.2       1 UNK        -0.5079 
     67 H67       -83.7666   27.7583  -70.0674 H         1 UNK         0.0900 
     68 H68       -84.8833   28.1267  -71.3833 H         1 UNK         0.0900 
     69 H69       -84.5475   26.4473  -70.9557 H         1 UNK         0.0900 
     70 H70       -83.8440   28.7257  -73.2376 H         1 UNK         0.2959 
     71 H71       -82.4331   29.0975  -74.8433 H         1 UNK         0.1079 
     72 H72       -79.9534   28.8908  -74.5895 H         1 UNK         0.0837 
     73 H73       -80.1620   28.0984  -73.0608 H         1 UNK         0.0837 
     74 H74       -80.5824   31.0511  -70.6255 H         1 UNK         0.0685 
     75 H75       -81.2106   29.4391  -70.8379 H         1 UNK         0.0685 
     76 H76       -79.7279   27.5399  -70.7205 H         1 UNK         0.1434 
     77 H77       -75.4943   28.1246  -70.3887 H         1 UNK         0.1329 
     78 H78       -78.0739   31.4848  -71.0451 H         1 UNK         0.1335 
     79 H79       -75.7020   31.7996  -70.2814 H         1 UNK         0.0680 
     80 H80       -74.6734   30.4077  -70.0325 H         1 UNK         0.0680 
     81 H81       -73.0739   32.2464  -71.2382 H         1 UNK         0.1032 
     82 H82       -72.5632   30.6076  -71.5458 H         1 UNK         0.1032 
     83 H83       -72.7646   32.8619  -73.5965 H         1 UNK         0.0461 
     84 H84       -69.9943   31.7432  -74.6117 H         1 UNK         0.3453 
     85 H85       -68.9028   32.5427  -73.5065 H         1 UNK         0.3453 
     86 H86       -72.7624   31.4197  -75.2330 H         1 UNK         0.2984 
     87 H87       -73.1693   29.3005  -76.1035 H         1 UNK         0.0554 
     88 H88       -71.3339   28.9562  -77.7876 H         1 UNK         0.0847 
     89 H89       -70.1347   29.3278  -76.5493 H         1 UNK         0.0847 
     90 H90       -71.2805   30.5532  -77.0625 H         1 UNK         0.0847 
     91 H91       -73.1419   27.1840  -75.6219 H         1 UNK         0.3141 
     92 H92       -70.6798   24.6345  -75.5131 H         1 UNK         0.0743 
     93 H93       -73.0207   25.4097  -73.6906 H         1 UNK         0.0784 
     94 H94       -72.3096   23.8039  -73.8381 H         1 UNK         0.0784 
     95 H95       -71.3678   25.1259  -73.1648 H         1 UNK         0.0784 
     96 H96       -73.4923   24.5606  -76.0003 H         1 UNK         0.3213 
     97 H97       -73.2865   24.8559  -79.5796 H         1 UNK         0.0855 
     98 H98       -74.0573   22.5597  -77.6995 H         1 UNK         0.0814 
     99 H99       -72.8704   22.4630  -78.9929 H         1 UNK         0.0814 
    100 H100      -74.5613   22.7421  -79.3779 H         1 UNK         0.0814 
    101 H101      -75.5334   24.5761  -77.8514 H         1 UNK         0.3105 
    102 H102      -76.1255   28.0766  -77.3398 H         1 UNK         0.0547 
    103 H103      -77.1880   27.5211  -79.5094 H         1 UNK         0.0837 
    104 H104      -77.6124   25.9187  -78.9287 H         1 UNK         0.0837 
    105 H105      -78.3509   27.3449  -78.2034 H         1 UNK         0.0837 
    106 H106      -77.5509   25.8329  -76.3702 H         1 UNK         0.3020 
    107 H107      -75.6199   25.2838  -73.4005 H         1 UNK         0.1245 
    108 H108      -78.4360   26.3608  -73.9418 H         1 UNK         0.0781 
    109 H109      -77.2208   27.1732  -73.0146 H         1 UNK         0.0781 
    110 H110      -76.3255   25.9171  -70.4182 H         1 UNK         0.0836 
    111 H111      -77.8125   25.7953  -69.5090 H         1 UNK         0.0836 
    112 H112      -77.8802   23.9692  -74.5883 H         1 UNK         0.3022 
    113 H113      -76.0148   21.4864  -76.3564 H         1 UNK         0.0747 
    114 H114      -77.4061   20.0010  -74.9342 H         1 UNK         0.0793 
    115 H115      -76.0998   20.6929  -73.9876 H         1 UNK         0.0793 
    116 H116      -77.7307   21.3263  -73.8156 H         1 UNK         0.0793 
    117 H117      -78.8212   21.9109  -75.9853 H         1 UNK         0.3047 
    118 H118      -79.3162   24.1696  -78.6918 H         1 UNK         0.0822 
    119 H119      -80.0561   21.2033  -78.4408 H         1 UNK         0.0807 
    120 H120      -79.1887   21.9250  -79.7890 H         1 UNK         0.0807 
    121 H121      -80.8507   22.3918  -79.4746 H         1 UNK         0.0807 
    122 H122      -81.2113   22.9289  -77.0213 H         1 UNK         0.2946 
    123 H123      -82.3986   24.3930  -75.6214 H         1 UNK         0.1144 
    124 H124      -82.0479   23.5629  -73.2832 H         1 UNK         0.0793 
    125 H125      -80.3045   23.7272  -73.4683 H         1 UNK         0.0793 
    126 H126      -81.1887   22.5441  -74.4236 H         1 UNK         0.0793 
    127 H127      -81.4331   25.9597  -73.4688 H         1 UNK         0.2896 
@<TRIPOS>BOND
     1    1    2 1    
     2    1   67 1    
     3    1   68 1    
     4    1   69 1    
     5    2    3 2    
     6    2    4 am   BACKBONE|DICT|INTERRES
     7    4    5 1    
     8    4   70 1    
     9    5    6 1    
    10    5   65 1    
    11    5   71 1    
    12    6    7 1    
    13    6   72 1    
    14    6   73 1    
    15    7    8 1    
    16    8    9 1    
    17    8   74 1    
    18    8   75 1    
    19    9   10 ar   
    20    9   14 ar   
    21   10   11 ar   
    22   10   76 1    
    23   11   12 ar   
    24   11   48 1    
    25   12   13 ar   
    26   12   77 1    
    27   13   14 ar   
    28   13   15 1    
    29   14   78 1    
    30   15   16 1    
    31   15   79 1    
    32   15   80 1    
    33   16   17 1    
    34   17   18 1    
    35   17   81 1    
    36   17   82 1    
    37   18   19 1    
    38   18   22 1    
    39   18   83 1    
    40   19   20 am   BACKBONE|DICT|INTERRES
    41   19   21 2    
    42   20   84 1    
    43   20   85 1    
    44   22   23 am   BACKBONE|DICT|INTERRES
    45   22   86 1    
    46   23   24 2    
    47   23   25 1    
    48   25   26 1    
    49   25   27 1    
    50   25   87 1    
    51   26   88 1    
    52   26   89 1    
    53   26   90 1    
    54   27   28 am   BACKBONE|DICT|INTERRES
    55   27   91 1    
    56   28   29 2    
    57   28   30 1    
    58   30   31 1    
    59   30   32 1    
    60   30   92 1    
    61   31   93 1    
    62   31   94 1    
    63   31   95 1    
    64   32   33 am   BACKBONE|DICT|INTERRES
    65   32   96 1    
    66   33   34 2    
    67   33   35 1    
    68   35   36 1    
    69   35   37 1    
    70   35   97 1    
    71   36   98 1    
    72   36   99 1    
    73   36  100 1    
    74   37   38 am   BACKBONE|DICT|INTERRES
    75   37  101 1    
    76   38   39 2    
    77   38   40 1    
    78   40   41 1    
    79   40   42 1    
    80   40  102 1    
    81   41  103 1    
    82   41  104 1    
    83   41  105 1    
    84   42   43 am   BACKBONE|DICT|INTERRES
    85   42  106 1    
    86   43   44 2    
    87   43   45 1    
    88   45   46 1    
    89   45   49 1    
    90   45  107 1    
    91   46   47 1    
    92   46  108 1    
    93   46  109 1    
    94   47   48 1    
    95   48  110 1    
    96   48  111 1    
    97   49   50 am   BACKBONE|DICT|INTERRES
    98   49  112 1    
    99   50   51 2    
   100   50   52 1    
   101   52   53 1    
   102   52   54 1    
   103   52  113 1    
   104   53  114 1    
   105   53  115 1    
   106   53  116 1    
   107   54   55 am   BACKBONE|DICT|INTERRES
   108   54  117 1    
   109   55   56 2    
   110   55   57 1    
   111   57   58 1    
   112   57   59 1    
   113   57  118 1    
   114   58  119 1    
   115   58  120 1    
   116   58  121 1    
   117   59   60 am   BACKBONE|DICT|INTERRES
   118   59  122 1    
   119   60   61 2    
   120   60   62 1    
   121   62   63 1    
   122   62   64 1    
   123   62  123 1    
   124   63  124 1    
   125   63  125 1    
   126   63  126 1    
   127   64   65 am   BACKBONE|DICT|INTERRES
   128   64  127 1    
   129   65   66 2    
@<TRIPOS>SUBSTRUCTURE
     1 UNK         1 GROUP             0       ****    0 ROOT    
