@<TRIPOS>MOLECULE
3R135
127   129    1
SMALL
USER_CHARGES


@<TRIPOS>ATOM
      1 CA        -82.1119   24.9167  -73.0939 C.3       0 UNK        -0.1998 
      2 C         -81.7672   25.7799  -74.2974 C.2       0 UNK         0.4909 
      3 O         -82.4202   25.6743  -75.3374 O.2       0 UNK        -0.5240 
      4 N         -80.7344   26.6207  -74.1691 N.am      1 UNK        -0.4739 
      5 CA        -80.2468   27.5681  -75.1779 C.3       1 UNK         0.0864 
      6 C6        -79.3865   28.6768  -74.5207 C.3       11 UNK        -0.0881 
      7 S7        -80.3948   29.8394  -73.5363 S.3       11 UNK        -0.2682 
      8 C8        -80.2817   29.1705  -71.8393 C.3       11 UNK         0.0289 
      9 C9        -78.8572   29.0664  -71.3028 C.ar      11 UNK        -0.0687 
     10 C10       -78.4578   27.9191  -70.6109 C.ar      11 UNK        -0.0823 
     11 C11       -77.1514   27.7954  -70.1246 C.ar      11 UNK        -0.0830 
     12 C12       -76.2416   28.8386  -70.3277 C.ar      11 UNK        -0.1021 
     13 C13       -76.6347   30.0005  -70.9977 C.ar      11 UNK        -0.0753 
     14 C14       -77.9438   30.1113  -71.4739 C.ar      11 UNK        -0.0933 
     15 C15       -75.6610   31.1508  -71.1987 C.3       11 UNK         0.0166 
     16 S16       -75.1086   31.2598  -72.9291 S.3       11 UNK        -0.2615 
     17 C17       -73.7232   30.0707  -72.9787 C.3       11 UNK        -0.0865 
     18 CA        -72.4465   30.7098  -73.6060 C.3       10 UNK         0.0862 
     19 C         -71.5356   31.4727  -72.5949 C.2       10 UNK         0.5551 
     20 N         -72.1173   32.1818  -71.6375 N.am      10 UNK        -0.7319 
     21 O         -70.3098   31.4767  -72.6966 O.2       10 UNK        -0.5018 
     22 N         -71.7321   29.7657  -74.4748 N.am      10 UNK        -0.4509 
     23 C         -71.0493   28.6754  -74.0977 C.2       10 UNK         0.4899 
     24 O         -70.9417   28.3067  -72.9270 O.2       10 UNK        -0.4839 
     25 CA        -70.3898   27.8532  -75.2241 C.3       9 UNK         0.0222 
     26 CB        -70.2425   26.3667  -74.8487 C.3       9 UNK        -0.1966 
     27 N         -71.1822   27.9521  -76.4501 N.am      9 UNK        -0.4218 
     28 C         -70.8269   28.5829  -77.5777 C.2       9 UNK         0.5020 
     29 O         -69.7149   29.0781  -77.7641 O.2       9 UNK        -0.5274 
     30 CA        -71.8972   28.7115  -78.6830 C.3       8 UNK         0.0270 
     31 CB        -71.7033   27.6174  -79.7455 C.3       8 UNK        -0.1976 
     32 N         -73.2759   28.6559  -78.1836 N.am      8 UNK        -0.4313 
     33 C         -73.8302   29.5391  -77.3402 C.2       8 UNK         0.5041 
     34 O         -73.2715   30.5773  -76.9853 O.2       8 UNK        -0.5577 
     35 CA        -75.2108   29.1854  -76.7483 C.3       7 UNK         0.0284 
     36 CB        -76.3213   29.9189  -77.5167 C.3       7 UNK        -0.1958 
     37 N         -75.5281   27.7494  -76.7025 N.am      7 UNK        -0.4454 
     38 C         -74.7790   26.7838  -76.1541 C.2       7 UNK         0.5089 
     39 O         -73.6924   26.9882  -75.6145 O.2       7 UNK        -0.5125 
     40 CA        -75.3167   25.3506  -76.2828 C.3       6 UNK         0.0408 
     41 CB        -74.3051   24.4201  -76.9824 C.3       6 UNK        -0.1791 
     42 N         -75.7543   24.8269  -74.9882 N.am      6 UNK        -0.4762 
     43 C         -75.0231   24.4716  -73.9217 C.2       6 UNK         0.5007 
     44 O         -73.7936   24.4176  -73.9005 O.2       6 UNK        -0.5032 
     45 CA        -75.8045   24.0881  -72.6485 C.3       5 UNK         0.0783 
     46 C46       -76.2287   25.3658  -71.8789 C.3       11 UNK        -0.0857 
     47 S47       -77.0554   25.0044  -70.2952 S.3       11 UNK        -0.2512 
     48 C48       -76.7200   26.5407  -69.3713 C.3       11 UNK         0.0225 
     49 N         -76.8967   23.1311  -72.9029 N.am      5 UNK        -0.4615 
     50 C         -78.0599   23.3560  -73.5247 C.2       4 UNK         0.5053 
     51 O         -78.3935   24.4453  -73.9998 O.2       4 UNK        -0.5105 
     52 CA        -79.0079   22.1598  -73.6492 C.3       4 UNK         0.0263 
     53 CB        -79.7579   21.9033  -72.3289 C.3       4 UNK        -0.1981 
     54 N         -79.9484   22.4591  -74.7216 N.am      4 UNK        -0.4224 
     55 C         -80.6585   21.5777  -75.4328 C.2       3 UNK         0.4895 
     56 O         -80.6496   20.3640  -75.2243 O.2       3 UNK        -0.5091 
     57 CA        -81.5281   22.1384  -76.5733 C.3       3 UNK         0.0250 
     58 CB        -83.0076   22.1790  -76.1562 C.3       3 UNK        -0.1996 
     59 N         -81.1156   23.4772  -77.0096 N.am      3 UNK        -0.4254 
     60 C         -80.0761   23.7209  -77.8248 C.2       2 UNK         0.5004 
     61 O         -79.3696   22.8352  -78.3062 O.2       2 UNK        -0.5226 
     62 CA        -79.7581   25.1873  -78.1604 C.3       2 UNK         0.0269 
     63 CB        -80.3828   25.5760  -79.5102 C.3       2 UNK        -0.1926 
     64 N         -80.2556   26.0927  -77.1243 N.am      2 UNK        -0.4687 
     65 C         -79.4964   26.8290  -76.3072 C.2       1 UNK         0.5165 
     66 O         -78.2725   26.9214  -76.4121 O.2       1 UNK        -0.5079 
     67 H67       -83.1047   25.1719  -72.7249 H         1 UNK         0.0900 
     68 H68       -81.4010   25.0538  -72.2792 H         1 UNK         0.0900 
     69 H69       -82.1132   23.8634  -73.3692 H         1 UNK         0.0900 
     70 H70       -80.1873   26.5923  -73.3215 H         1 UNK         0.2959 
     71 H71       -81.1104   28.0488  -75.6435 H         1 UNK         0.1079 
     72 H72       -78.5863   28.2474  -73.9150 H         1 UNK         0.0837 
     73 H73       -78.8892   29.2765  -75.2847 H         1 UNK         0.0837 
     74 H74       -80.8528   29.8193  -71.1744 H         1 UNK         0.0685 
     75 H75       -80.7764   28.1990  -71.8142 H         1 UNK         0.0685 
     76 H76       -79.1603   27.1117  -70.4552 H         1 UNK         0.1434 
     77 H77       -75.2297   28.7521  -69.9559 H         1 UNK         0.1329 
     78 H78       -78.2458   31.0105  -71.9932 H         1 UNK         0.1335 
     79 H79       -76.1573   32.0853  -70.9328 H         1 UNK         0.0680 
     80 H80       -74.8033   31.0631  -70.5302 H         1 UNK         0.0680 
     81 H81       -74.0604   29.2226  -73.5772 H         1 UNK         0.1032 
     82 H82       -73.5148   29.6576  -71.9903 H         1 UNK         0.1032 
     83 H83       -72.7654   31.4799  -74.3095 H         1 UNK         0.0461 
     84 H84       -71.5461   32.6987  -70.9874 H         1 UNK         0.3453 
     85 H85       -73.1226   32.2308  -71.5823 H         1 UNK         0.3453 
     86 H86       -71.7799   29.9858  -75.4617 H         1 UNK         0.2984 
     87 H87       -69.3919   28.2675  -75.3789 H         1 UNK         0.0554 
     88 H88       -69.7880   25.7963  -75.6587 H         1 UNK         0.0847 
     89 H89       -71.2091   25.9137  -74.6212 H         1 UNK         0.0847 
     90 H90       -69.6075   26.2426  -73.9707 H         1 UNK         0.0847 
     91 H91       -72.1372   27.6071  -76.3557 H         1 UNK         0.3141 
     92 H92       -71.7572   29.6837  -79.1601 H         1 UNK         0.0743 
     93 H93       -70.6945   27.6507  -80.1596 H         1 UNK         0.0784 
     94 H94       -71.8516   26.6197  -79.3300 H         1 UNK         0.0784 
     95 H95       -72.3964   27.7431  -80.5776 H         1 UNK         0.0784 
     96 H96       -73.8162   27.8397  -78.4296 H         1 UNK         0.3213 
     97 H97       -75.2164   29.5453  -75.7179 H         1 UNK         0.0855 
     98 H98       -76.1385   30.9943  -77.5353 H         1 UNK         0.0814 
     99 H99       -77.2948   29.7664  -77.0517 H         1 UNK         0.0814 
    100 H100      -76.3869   29.5801  -78.5513 H         1 UNK         0.0814 
    101 H101      -76.4624   27.4876  -77.0051 H         1 UNK         0.3105 
    102 H102      -76.2090   25.3714  -76.9095 H         1 UNK         0.0547 
    103 H103      -74.1052   24.7617  -77.9984 H         1 UNK         0.0837 
    104 H104      -73.3466   24.3870  -76.4635 H         1 UNK         0.0837 
    105 H105      -74.6850   23.4010  -77.0514 H         1 UNK         0.0837 
    106 H106      -76.7617   24.8432  -74.8406 H         1 UNK         0.3020 
    107 H107      -75.0962   23.5530  -72.0130 H         1 UNK         0.1245 
    108 H108      -76.8967   25.9855  -72.4801 H         1 UNK         0.0781 
    109 H109      -75.3515   25.9831  -71.6736 H         1 UNK         0.0781 
    110 H110      -77.2468   26.5015  -68.4170 H         1 UNK         0.0836 
    111 H111      -75.6558   26.5776  -69.1331 H         1 UNK         0.0836 
    112 H112      -76.7184   22.1953  -72.5664 H         1 UNK         0.3022 
    113 H113      -78.4250   21.2778  -73.9234 H         1 UNK         0.0747 
    114 H114      -80.4642   21.0784  -72.4236 H         1 UNK         0.0793 
    115 H115      -79.0637   21.6425  -71.5293 H         1 UNK         0.0793 
    116 H116      -80.3117   22.7828  -72.0010 H         1 UNK         0.0793 
    117 H117      -79.9543   23.4356  -74.9893 H         1 UNK         0.3047 
    118 H118      -81.4353   21.4519  -77.4179 H         1 UNK         0.0822 
    119 H119      -83.6433   22.4923  -76.9845 H         1 UNK         0.0807 
    120 H120      -83.1785   22.8652  -75.3266 H         1 UNK         0.0807 
    121 H121      -83.3524   21.1932  -75.8405 H         1 UNK         0.0807 
    122 H122      -81.6474   24.2541  -76.6342 H         1 UNK         0.2946 
    123 H123      -78.6720   25.2671  -78.2481 H         1 UNK         0.1144 
    124 H124      -80.1190   26.5968  -79.7875 H         1 UNK         0.0793 
    125 H125      -81.4710   25.5050  -79.4886 H         1 UNK         0.0793 
    126 H126      -80.0276   24.9221  -80.3081 H         1 UNK         0.0793 
    127 H127      -81.2479   26.0579  -76.9159 H         1 UNK         0.2896 
@<TRIPOS>BOND
     1    1    2 1    
     2    1   67 1    
     3    1   68 1    
     4    1   69 1    
     5    2    3 2    
     6    2    4 am   BACKBONE|DICT|INTERRES
     7    4    5 1    
     8    4   70 1    
     9    5    6 1    
    10    5   65 1    
    11    5   71 1    
    12    6    7 1    
    13    6   72 1    
    14    6   73 1    
    15    7    8 1    
    16    8    9 1    
    17    8   74 1    
    18    8   75 1    
    19    9   10 ar   
    20    9   14 ar   
    21   10   11 ar   
    22   10   76 1    
    23   11   12 ar   
    24   11   48 1    
    25   12   13 ar   
    26   12   77 1    
    27   13   14 ar   
    28   13   15 1    
    29   14   78 1    
    30   15   16 1    
    31   15   79 1    
    32   15   80 1    
    33   16   17 1    
    34   17   18 1    
    35   17   81 1    
    36   17   82 1    
    37   18   19 1    
    38   18   22 1    
    39   18   83 1    
    40   19   20 am   BACKBONE|DICT|INTERRES
    41   19   21 2    
    42   20   84 1    
    43   20   85 1    
    44   22   23 am   BACKBONE|DICT|INTERRES
    45   22   86 1    
    46   23   24 2    
    47   23   25 1    
    48   25   26 1    
    49   25   27 1    
    50   25   87 1    
    51   26   88 1    
    52   26   89 1    
    53   26   90 1    
    54   27   28 am   BACKBONE|DICT|INTERRES
    55   27   91 1    
    56   28   29 2    
    57   28   30 1    
    58   30   31 1    
    59   30   32 1    
    60   30   92 1    
    61   31   93 1    
    62   31   94 1    
    63   31   95 1    
    64   32   33 am   BACKBONE|DICT|INTERRES
    65   32   96 1    
    66   33   34 2    
    67   33   35 1    
    68   35   36 1    
    69   35   37 1    
    70   35   97 1    
    71   36   98 1    
    72   36   99 1    
    73   36  100 1    
    74   37   38 am   BACKBONE|DICT|INTERRES
    75   37  101 1    
    76   38   39 2    
    77   38   40 1    
    78   40   41 1    
    79   40   42 1    
    80   40  102 1    
    81   41  103 1    
    82   41  104 1    
    83   41  105 1    
    84   42   43 am   BACKBONE|DICT|INTERRES
    85   42  106 1    
    86   43   44 2    
    87   43   45 1    
    88   45   46 1    
    89   45   49 1    
    90   45  107 1    
    91   46   47 1    
    92   46  108 1    
    93   46  109 1    
    94   47   48 1    
    95   48  110 1    
    96   48  111 1    
    97   49   50 am   BACKBONE|DICT|INTERRES
    98   49  112 1    
    99   50   51 2    
   100   50   52 1    
   101   52   53 1    
   102   52   54 1    
   103   52  113 1    
   104   53  114 1    
   105   53  115 1    
   106   53  116 1    
   107   54   55 am   BACKBONE|DICT|INTERRES
   108   54  117 1    
   109   55   56 2    
   110   55   57 1    
   111   57   58 1    
   112   57   59 1    
   113   57  118 1    
   114   58  119 1    
   115   58  120 1    
   116   58  121 1    
   117   59   60 am   BACKBONE|DICT|INTERRES
   118   59  122 1    
   119   60   61 2    
   120   60   62 1    
   121   62   63 1    
   122   62   64 1    
   123   62  123 1    
   124   63  124 1    
   125   63  125 1    
   126   63  126 1    
   127   64   65 am   BACKBONE|DICT|INTERRES
   128   64  127 1    
   129   65   66 2    
@<TRIPOS>SUBSTRUCTURE
     1 UNK         1 GROUP             0       ****    0 ROOT    
