@<TRIPOS>MOLECULE
3R135
127   129    1
SMALL
USER_CHARGES


@<TRIPOS>ATOM
      1 CA        -81.9921   30.6871  -74.6335 C.3       0 UNK        -0.1998 
      2 C         -81.3163   29.3534  -74.3565 C.2       0 UNK         0.4909 
      3 O         -81.7018   28.3415  -74.9426 O.2       0 UNK        -0.5240 
      4 N         -80.2962   29.3509  -73.4848 N.am      1 UNK        -0.4739 
      5 CA        -79.5398   28.1729  -73.0219 C.3       1 UNK         0.0864 
      6 C6        -80.3592   27.2710  -72.0554 C.3       11 UNK        -0.0881 
      7 S7        -80.8359   28.1808  -70.5408 S.3       11 UNK        -0.2682 
      8 C8        -79.7347   27.4760  -69.2631 C.3       11 UNK         0.0289 
      9 C9        -78.2782   27.4080  -69.7056 C.ar      11 UNK        -0.0687 
     10 C10       -77.6387   26.1700  -69.8138 C.ar      11 UNK        -0.0823 
     11 C11       -76.3270   26.0862  -70.2879 C.ar      11 UNK        -0.0830 
     12 C12       -75.6583   27.2529  -70.6708 C.ar      11 UNK        -0.1021 
     13 C13       -76.2804   28.5000  -70.5519 C.ar      11 UNK        -0.0753 
     14 C14       -77.5793   28.5725  -70.0370 C.ar      11 UNK        -0.0933 
     15 C15       -75.5511   29.7646  -70.9857 C.3       11 UNK         0.0166 
     16 S16       -76.4685   30.6661  -72.2756 S.3       11 UNK        -0.2615 
     17 C17       -75.2730   31.9814  -72.7008 C.3       11 UNK        -0.0865 
     18 CA        -75.2370   32.2720  -74.2288 C.3       10 UNK         0.0862 
     19 C         -74.3663   33.5145  -74.5918 C.2       10 UNK         0.5551 
     20 N         -73.7510   33.5652  -75.7669 N.am      10 UNK        -0.7319 
     21 O         -74.2727   34.4622  -73.8152 O.2       10 UNK        -0.5018 
     22 N         -74.9782   31.0610  -75.0300 N.am      10 UNK        -0.4509 
     23 C         -73.8433   30.3511  -75.0616 C.2       10 UNK         0.4899 
     24 O         -72.7978   30.6819  -74.4974 O.2       10 UNK        -0.4839 
     25 CA        -73.9005   29.0680  -75.9106 C.3       9 UNK         0.0222 
     26 CB        -73.8015   29.3999  -77.4098 C.3       9 UNK        -0.1966 
     27 N         -72.8601   28.0938  -75.5798 N.am      9 UNK        -0.4218 
     28 C         -72.7177   27.4653  -74.4050 C.2       9 UNK         0.5020 
     29 O         -73.4374   27.6493  -73.4219 O.2       9 UNK        -0.5274 
     30 CA        -71.6092   26.4059  -74.3638 C.3       8 UNK         0.0270 
     31 CB        -71.4739   25.7123  -72.9930 C.3       8 UNK        -0.1976 
     32 N         -71.8698   25.4083  -75.4032 N.am      8 UNK        -0.4313 
     33 C         -70.9273   24.7830  -76.1217 C.2       8 UNK         0.5041 
     34 O         -69.7234   25.0159  -76.0007 O.2       8 UNK        -0.5577 
     35 CA        -71.3679   23.7018  -77.1302 C.3       7 UNK         0.0284 
     36 CB        -70.8698   22.3168  -76.6812 C.3       7 UNK        -0.1958 
     37 N         -72.8169   23.6323  -77.3299 N.am      7 UNK        -0.4454 
     38 C         -73.5201   24.4102  -78.1635 C.2       7 UNK         0.5089 
     39 O         -73.0155   25.2593  -78.8982 O.2       7 UNK        -0.5125 
     40 CA        -75.0520   24.2271  -78.1525 C.3       6 UNK         0.0408 
     41 CB        -75.4916   23.2706  -79.2713 C.3       6 UNK        -0.1791 
     42 N         -75.5953   23.7565  -76.8695 N.am      6 UNK        -0.4762 
     43 C         -75.4743   24.4174  -75.7102 C.2       6 UNK         0.5007 
     44 O         -74.8650   25.4810  -75.6116 O.2       6 UNK        -0.5032 
     45 CA        -76.1252   23.7865  -74.4683 C.3       5 UNK         0.0783 
     46 C46       -75.7585   24.5501  -73.1710 C.3       11 UNK        -0.0857 
     47 S47       -76.3536   23.6867  -71.6828 S.3       11 UNK        -0.2512 
     48 C48       -75.6369   24.7326  -70.3779 C.3       11 UNK         0.0225 
     49 N         -77.5726   23.7277  -74.6565 N.am      5 UNK        -0.4615 
     50 C         -78.2518   22.6921  -75.1588 C.2       4 UNK         0.5053 
     51 O         -77.7167   21.6767  -75.6042 O.2       4 UNK        -0.5105 
     52 CA        -79.7799   22.8221  -75.1784 C.3       4 UNK         0.0263 
     53 CB        -80.3491   22.7745  -73.7496 C.3       4 UNK        -0.1981 
     54 N         -80.1700   24.0794  -75.8137 N.am      4 UNK        -0.4224 
     55 C         -80.7241   24.1875  -77.0293 C.2       3 UNK         0.4895 
     56 O         -81.0457   23.2252  -77.7277 O.2       3 UNK        -0.5091 
     57 CA        -80.9607   25.6111  -77.5695 C.3       3 UNK         0.0250 
     58 CB        -82.4081   26.0524  -77.3016 C.3       3 UNK        -0.1996 
     59 N         -80.0379   26.6010  -77.0069 N.am      3 UNK        -0.4254 
     60 C         -78.7182   26.6239  -77.2527 C.2       2 UNK         0.5004 
     61 O         -78.1689   25.8821  -78.0662 O.2       2 UNK        -0.5226 
     62 CA        -77.8539   27.6230  -76.4599 C.3       2 UNK         0.0269 
     63 CB        -77.4930   28.8210  -77.3529 C.3       2 UNK        -0.1926 
     64 N         -78.4600   28.1244  -75.2216 N.am      2 UNK        -0.4687 
     65 C         -78.8861   27.3895  -74.1821 C.2       1 UNK         0.5165 
     66 O         -78.8210   26.1593  -74.1482 O.2       1 UNK        -0.5079 
     67 H67       -81.5461   31.4984  -74.0584 H         1 UNK         0.0900 
     68 H68       -81.9117   30.9355  -75.6914 H         1 UNK         0.0900 
     69 H69       -83.0494   30.6302  -74.3760 H         1 UNK         0.0900 
     70 H70       -80.0287   30.2220  -73.0476 H         1 UNK         0.2959 
     71 H71       -78.6918   28.5667  -72.4645 H         1 UNK         0.1079 
     72 H72       -79.7983   26.3788  -71.7722 H         1 UNK         0.0837 
     73 H73       -81.2638   26.9089  -72.5464 H         1 UNK         0.0837 
     74 H74       -79.8066   28.0828  -68.3596 H         1 UNK         0.0685 
     75 H75       -80.1044   26.4845  -68.9971 H         1 UNK         0.0685 
     76 H76       -78.1653   25.2638  -69.5466 H         1 UNK         0.1434 
     77 H77       -74.6519   27.1900  -71.0631 H         1 UNK         0.1329 
     78 H78       -78.0689   29.5330  -69.9496 H         1 UNK         0.1335 
     79 H79       -74.5579   29.5188  -71.3663 H         1 UNK         0.0680 
     80 H80       -75.4072   30.4139  -70.1211 H         1 UNK         0.0680 
     81 H81       -74.2763   31.7108  -72.3485 H         1 UNK         0.1032 
     82 H82       -75.5580   32.8760  -72.1442 H         1 UNK         0.1032 
     83 H83       -76.2465   32.5755  -74.5087 H         1 UNK         0.0461 
     84 H84       -73.8221   32.7953  -76.4120 H         1 UNK         0.3453 
     85 H85       -73.1983   34.3745  -76.0020 H         1 UNK         0.3453 
     86 H86       -75.7707   30.7232  -75.5534 H         1 UNK         0.2984 
     87 H87       -74.8600   28.5828  -75.7206 H         1 UNK         0.0554 
     88 H88       -74.5734   30.1065  -77.7161 H         1 UNK         0.0847 
     89 H89       -73.9267   28.5058  -78.0216 H         1 UNK         0.0847 
     90 H90       -72.8380   29.8461  -77.6599 H         1 UNK         0.0847 
     91 H91       -72.2096   27.8663  -76.3171 H         1 UNK         0.3141 
     92 H92       -70.6740   26.9291  -74.5747 H         1 UNK         0.0743 
     93 H93       -72.3772   25.1636  -72.7270 H         1 UNK         0.0784 
     94 H94       -70.6410   25.0092  -72.9861 H         1 UNK         0.0784 
     95 H95       -71.2890   26.4414  -72.2033 H         1 UNK         0.0784 
     96 H96       -72.8522   25.2353  -75.5990 H         1 UNK         0.3213 
     97 H97       -70.8918   23.9396  -78.0841 H         1 UNK         0.0855 
     98 H98       -71.2996   22.0233  -75.7227 H         1 UNK         0.0814 
     99 H99       -69.7849   22.3090  -76.5666 H         1 UNK         0.0814 
    100 H100      -71.1198   21.5480  -77.4127 H         1 UNK         0.0814 
    101 H101      -73.3226   22.9587  -76.7732 H         1 UNK         0.3105 
    102 H102      -75.4919   25.2063  -78.3523 H         1 UNK         0.0547 
    103 H103      -75.1202   23.6066  -80.2404 H         1 UNK         0.0837 
    104 H104      -75.1167   22.2591  -79.1105 H         1 UNK         0.0837 
    105 H105      -76.5784   23.2212  -79.3435 H         1 UNK         0.0837 
    106 H106      -76.1343   22.8995  -76.8809 H         1 UNK         0.3020 
    107 H107      -75.7249   22.7736  -74.3807 H         1 UNK         0.1245 
    108 H108      -76.1712   25.5613  -73.1850 H         1 UNK         0.0781 
    109 H109      -74.6767   24.6608  -73.0826 H         1 UNK         0.0781 
    110 H110      -74.5658   24.8490  -70.5512 H         1 UNK         0.0836 
    111 H111      -75.7357   24.2180  -69.4211 H         1 UNK         0.0836 
    112 H112      -78.0796   24.5576  -74.3547 H         1 UNK         0.3022 
    113 H113      -80.1808   21.9694  -75.7306 H         1 UNK         0.0747 
    114 H114      -81.4388   22.8024  -73.7594 H         1 UNK         0.0793 
    115 H115      -80.0525   21.8558  -73.2418 H         1 UNK         0.0793 
    116 H116      -80.0005   23.6109  -73.1417 H         1 UNK         0.0793 
    117 H117      -79.9034   24.9293  -75.3277 H         1 UNK         0.3047 
    118 H118      -80.8060   25.5826  -78.6503 H         1 UNK         0.0822 
    119 H119      -82.6054   27.0420  -77.7142 H         1 UNK         0.0807 
    120 H120      -82.6280   26.0854  -76.2336 H         1 UNK         0.0807 
    121 H121      -83.1179   25.3621  -77.7594 H         1 UNK         0.0807 
    122 H122      -80.4236   27.2475  -76.3267 H         1 UNK         0.2946 
    123 H123      -76.9345   27.1031  -76.1843 H         1 UNK         0.1144 
    124 H124      -76.9453   28.4950  -78.2385 H         1 UNK         0.0793 
    125 H125      -76.8636   29.5379  -76.8296 H         1 UNK         0.0793 
    126 H126      -78.3838   29.3488  -77.6964 H         1 UNK         0.0793 
    127 H127      -78.5969   29.1230  -75.1629 H         1 UNK         0.2896 
@<TRIPOS>BOND
     1    1    2 1    
     2    1   67 1    
     3    1   68 1    
     4    1   69 1    
     5    2    3 2    
     6    2    4 am   BACKBONE|DICT|INTERRES
     7    4    5 1    
     8    4   70 1    
     9    5    6 1    
    10    5   65 1    
    11    5   71 1    
    12    6    7 1    
    13    6   72 1    
    14    6   73 1    
    15    7    8 1    
    16    8    9 1    
    17    8   74 1    
    18    8   75 1    
    19    9   10 ar   
    20    9   14 ar   
    21   10   11 ar   
    22   10   76 1    
    23   11   12 ar   
    24   11   48 1    
    25   12   13 ar   
    26   12   77 1    
    27   13   14 ar   
    28   13   15 1    
    29   14   78 1    
    30   15   16 1    
    31   15   79 1    
    32   15   80 1    
    33   16   17 1    
    34   17   18 1    
    35   17   81 1    
    36   17   82 1    
    37   18   19 1    
    38   18   22 1    
    39   18   83 1    
    40   19   20 am   BACKBONE|DICT|INTERRES
    41   19   21 2    
    42   20   84 1    
    43   20   85 1    
    44   22   23 am   BACKBONE|DICT|INTERRES
    45   22   86 1    
    46   23   24 2    
    47   23   25 1    
    48   25   26 1    
    49   25   27 1    
    50   25   87 1    
    51   26   88 1    
    52   26   89 1    
    53   26   90 1    
    54   27   28 am   BACKBONE|DICT|INTERRES
    55   27   91 1    
    56   28   29 2    
    57   28   30 1    
    58   30   31 1    
    59   30   32 1    
    60   30   92 1    
    61   31   93 1    
    62   31   94 1    
    63   31   95 1    
    64   32   33 am   BACKBONE|DICT|INTERRES
    65   32   96 1    
    66   33   34 2    
    67   33   35 1    
    68   35   36 1    
    69   35   37 1    
    70   35   97 1    
    71   36   98 1    
    72   36   99 1    
    73   36  100 1    
    74   37   38 am   BACKBONE|DICT|INTERRES
    75   37  101 1    
    76   38   39 2    
    77   38   40 1    
    78   40   41 1    
    79   40   42 1    
    80   40  102 1    
    81   41  103 1    
    82   41  104 1    
    83   41  105 1    
    84   42   43 am   BACKBONE|DICT|INTERRES
    85   42  106 1    
    86   43   44 2    
    87   43   45 1    
    88   45   46 1    
    89   45   49 1    
    90   45  107 1    
    91   46   47 1    
    92   46  108 1    
    93   46  109 1    
    94   47   48 1    
    95   48  110 1    
    96   48  111 1    
    97   49   50 am   BACKBONE|DICT|INTERRES
    98   49  112 1    
    99   50   51 2    
   100   50   52 1    
   101   52   53 1    
   102   52   54 1    
   103   52  113 1    
   104   53  114 1    
   105   53  115 1    
   106   53  116 1    
   107   54   55 am   BACKBONE|DICT|INTERRES
   108   54  117 1    
   109   55   56 2    
   110   55   57 1    
   111   57   58 1    
   112   57   59 1    
   113   57  118 1    
   114   58  119 1    
   115   58  120 1    
   116   58  121 1    
   117   59   60 am   BACKBONE|DICT|INTERRES
   118   59  122 1    
   119   60   61 2    
   120   60   62 1    
   121   62   63 1    
   122   62   64 1    
   123   62  123 1    
   124   63  124 1    
   125   63  125 1    
   126   63  126 1    
   127   64   65 am   BACKBONE|DICT|INTERRES
   128   64  127 1    
   129   65   66 2    
@<TRIPOS>SUBSTRUCTURE
     1 UNK         1 GROUP             0       ****    0 ROOT    
