@<TRIPOS>MOLECULE
3R135
127   129    1
SMALL
USER_CHARGES


@<TRIPOS>ATOM
      1 CA        -81.6876   30.8302  -77.1789 C.3       0 UNK        -0.1998 
      2 C         -80.4437   30.0823  -76.7239 C.2       0 UNK         0.4909 
      3 O         -79.3870   30.2205  -77.3386 O.2       0 UNK        -0.5240 
      4 N         -80.5614   29.2875  -75.6523 N.am      1 UNK        -0.4739 
      5 CA        -79.4615   28.5043  -75.0684 C.3       1 UNK         0.0864 
      6 C6        -79.6455   28.2851  -73.5453 C.3       11 UNK        -0.0881 
      7 S7        -79.8178   29.8670  -72.6463 S.3       11 UNK        -0.2682 
      8 C8        -79.7054   29.3387  -70.9096 C.3       11 UNK         0.0289 
      9 C9        -78.2705   29.0495  -70.4950 C.ar      11 UNK        -0.0687 
     10 C10       -77.8007   27.7339  -70.4648 C.ar      11 UNK        -0.0823 
     11 C11       -76.4830   27.4536  -70.0820 C.ar      11 UNK        -0.0830 
     12 C12       -75.6551   28.5070  -69.6869 C.ar      11 UNK        -0.1021 
     13 C13       -76.1058   29.8292  -69.7218 C.ar      11 UNK        -0.0753 
     14 C14       -77.4175   30.0951  -70.1267 C.ar      11 UNK        -0.0933 
     15 C15       -75.1672   30.9638  -69.3302 C.3       11 UNK         0.0166 
     16 S16       -73.6725   31.0205  -70.3761 S.3       11 UNK        -0.2615 
     17 C17       -74.3867   31.3831  -72.0149 C.3       11 UNK        -0.0865 
     18 CA        -74.6312   30.1184  -72.8853 C.3       10 UNK         0.0862 
     19 C         -75.4316   30.4896  -74.1592 C.2       10 UNK         0.5551 
     20 N         -76.7271   30.7319  -74.0286 N.am      10 UNK        -0.7319 
     21 O         -74.8879   30.5967  -75.2561 O.2       10 UNK        -0.5018 
     22 N         -73.3847   29.4417  -73.2641 N.am      10 UNK        -0.4509 
     23 C         -72.9100   28.3026  -72.7491 C.2       10 UNK         0.4899 
     24 O         -73.3808   27.7380  -71.7638 O.2       10 UNK        -0.4839 
     25 CA        -71.7320   27.6614  -73.5016 C.3       9 UNK         0.0222 
     26 CB        -71.3767   26.2610  -72.9661 C.3       9 UNK        -0.1966 
     27 N         -72.0619   27.5513  -74.9227 N.am      9 UNK        -0.4218 
     28 C         -71.6870   28.4234  -75.8687 C.2       9 UNK         0.5020 
     29 O         -70.9755   29.4045  -75.6517 O.2       9 UNK        -0.5274 
     30 CA        -72.2325   28.1918  -77.2804 C.3       8 UNK         0.0270 
     31 CB        -71.5310   27.0005  -77.9553 C.3       8 UNK        -0.1976 
     32 N         -73.6719   27.9462  -77.2329 N.am      8 UNK        -0.4313 
     33 C         -74.6040   28.6171  -77.9237 C.2       8 UNK         0.5041 
     34 O         -74.3549   29.5621  -78.6757 O.2       8 UNK        -0.5577 
     35 CA        -76.0598   28.1211  -77.7633 C.3       7 UNK         0.0284 
     36 CB        -76.9566   28.4817  -78.9657 C.3       7 UNK        -0.1958 
     37 N         -76.1417   26.6834  -77.4701 N.am      7 UNK        -0.4454 
     38 C         -75.6278   25.6814  -78.1993 C.2       7 UNK         0.5089 
     39 O         -75.1438   25.8304  -79.3221 O.2       7 UNK        -0.5125 
     40 CA        -75.6174   24.2808  -77.5613 C.3       6 UNK         0.0408 
     41 CB        -74.3425   23.4950  -77.9316 C.3       6 UNK        -0.1791 
     42 N         -75.8138   24.2413  -76.1059 N.am      6 UNK        -0.4762 
     43 C         -75.0621   24.7877  -75.1312 C.2       6 UNK         0.5007 
     44 O         -74.1578   25.6023  -75.3412 O.2       6 UNK        -0.5032 
     45 CA        -75.3687   24.3369  -73.6785 C.3       5 UNK         0.0783 
     46 C46       -76.0622   25.4658  -72.8665 C.3       11 UNK        -0.0857 
     47 S47       -76.6963   24.8871  -71.2469 S.3       11 UNK        -0.2512 
     48 C48       -75.9238   26.0319  -70.0565 C.3       11 UNK         0.0225 
     49 N         -76.1671   23.1071  -73.6406 N.am      5 UNK        -0.4615 
     50 C         -75.7884   21.8703  -73.9855 C.2       4 UNK         0.5053 
     51 O         -74.6416   21.5673  -74.3126 O.2       4 UNK        -0.5105 
     52 CA        -76.9037   20.8016  -73.9993 C.3       4 UNK         0.0263 
     53 CB        -76.8344   19.9369  -72.7305 C.3       4 UNK        -0.1981 
     54 N         -78.2554   21.3737  -74.1231 N.am      4 UNK        -0.4224 
     55 C         -78.6833   22.0876  -75.1759 C.2       3 UNK         0.4895 
     56 O         -78.0165   22.2231  -76.2040 O.2       3 UNK        -0.5091 
     57 CA        -80.0221   22.8379  -75.0369 C.3       3 UNK         0.0250 
     58 CB        -80.3971   23.1571  -73.5744 C.3       3 UNK        -0.1996 
     59 N         -79.9232   24.0982  -75.7738 N.am      3 UNK        -0.4254 
     60 C         -80.4126   24.3327  -76.9953 C.2       2 UNK         0.5004 
     61 O         -81.1597   23.5553  -77.5928 O.2       2 UNK        -0.5226 
     62 CA        -79.9860   25.6602  -77.6580 C.3       2 UNK         0.0269 
     63 CB        -80.7664   25.9578  -78.9521 C.3       2 UNK        -0.1926 
     64 N         -80.0959   26.8217  -76.7682 N.am      2 UNK        -0.4687 
     65 C         -79.2257   27.1695  -75.8093 C.2       1 UNK         0.5165 
     66 O         -78.2548   26.4730  -75.5075 O.2       1 UNK        -0.5079 
     67 H67       -81.9415   30.5490  -78.2005 H         1 UNK         0.0900 
     68 H68       -82.5472   30.6170  -76.5438 H         1 UNK         0.0900 
     69 H69       -81.5073   31.9046  -77.1557 H         1 UNK         0.0900 
     70 H70       -81.4459   29.2295  -75.1671 H         1 UNK         0.2959 
     71 H71       -78.5373   29.0681  -75.2024 H         1 UNK         0.1079 
     72 H72       -78.7867   27.7488  -73.1378 H         1 UNK         0.0837 
     73 H73       -80.5229   27.6680  -73.3433 H         1 UNK         0.0837 
     74 H74       -80.3411   28.4662  -70.7500 H         1 UNK         0.0685 
     75 H75       -80.1117   30.1292  -70.2768 H         1 UNK         0.0685 
     76 H76       -78.4673   26.9309  -70.7454 H         1 UNK         0.1434 
     77 H77       -74.6369   28.3031  -69.3835 H         1 UNK         0.1329 
     78 H78       -77.7788   31.1141  -70.1545 H         1 UNK         0.1335 
     79 H79       -74.8638   30.8273  -68.2914 H         1 UNK         0.0680 
     80 H80       -75.6753   31.9282  -69.3782 H         1 UNK         0.0680 
     81 H81       -73.7143   32.0697  -72.5324 H         1 UNK         0.1032 
     82 H82       -75.3156   31.9371  -71.8663 H         1 UNK         0.1032 
     83 H83       -75.2559   29.4148  -72.3341 H         1 UNK         0.0461 
     84 H84       -77.2496   31.0188  -74.8405 H         1 UNK         0.3453 
     85 H85       -77.1937   30.6409  -73.1391 H         1 UNK         0.3453 
     86 H86       -72.9551   29.8025  -74.1060 H         1 UNK         0.2984 
     87 H87       -70.8619   28.3051  -73.3581 H         1 UNK         0.0554 
     88 H88       -71.0942   26.3047  -71.9135 H         1 UNK         0.0847 
     89 H89       -70.5347   25.8312  -73.5087 H         1 UNK         0.0847 
     90 H90       -72.2171   25.5710  -73.0508 H         1 UNK         0.0847 
     91 H91       -72.6934   26.7918  -75.1647 H         1 UNK         0.3141 
     92 H92       -72.0198   29.0900  -77.8641 H         1 UNK         0.0743 
     93 H93       -70.4520   27.1549  -77.9977 H         1 UNK         0.0784 
     94 H94       -71.8812   26.8682  -78.9793 H         1 UNK         0.0784 
     95 H95       -71.7089   26.0662  -77.4210 H         1 UNK         0.0784 
     96 H96       -73.9836   27.1836  -76.6410 H         1 UNK         0.3213 
     97 H97       -76.4578   28.6373  -76.8882 H         1 UNK         0.0855 
     98 H98       -76.5790   28.0575  -79.8963 H         1 UNK         0.0814 
     99 H99       -77.0126   29.5628  -79.0983 H         1 UNK         0.0814 
    100 H100      -77.9762   28.1248  -78.8202 H         1 UNK         0.0814 
    101 H101      -76.5780   26.4408  -76.5852 H         1 UNK         0.3105 
    102 H102      -76.4688   23.7519  -77.9918 H         1 UNK         0.0547 
    103 H103      -74.3536   22.4952  -77.4974 H         1 UNK         0.0837 
    104 H104      -73.4420   24.0017  -77.5829 H         1 UNK         0.0837 
    105 H105      -74.2507   23.3743  -79.0117 H         1 UNK         0.0837 
    106 H106      -76.5497   23.6044  -75.8194 H         1 UNK         0.3020 
    107 H107      -74.4081   24.1169  -73.2081 H         1 UNK         0.1245 
    108 H108      -76.9135   25.8703  -73.4136 H         1 UNK         0.0781 
    109 H109      -75.3784   26.3022  -72.7183 H         1 UNK         0.0781 
    110 H110      -74.8476   26.0427  -70.2362 H         1 UNK         0.0836 
    111 H111      -76.0637   25.6294  -69.0527 H         1 UNK         0.0836 
    112 H112      -77.1166   23.2306  -73.3242 H         1 UNK         0.3022 
    113 H113      -76.7295   20.1599  -74.8657 H         1 UNK         0.0747 
    114 H114      -77.5672   19.1302  -72.7584 H         1 UNK         0.0793 
    115 H115      -75.8514   19.4752  -72.6268 H         1 UNK         0.0793 
    116 H116      -77.0141   20.5254  -71.8297 H         1 UNK         0.0793 
    117 H117      -78.8573   21.2933  -73.3158 H         1 UNK         0.3047 
    118 H118      -80.8003   22.2037  -75.4662 H         1 UNK         0.0822 
    119 H119      -81.3060   23.7577  -73.5289 H         1 UNK         0.0807 
    120 H120      -79.6118   23.7146  -73.0615 H         1 UNK         0.0807 
    121 H121      -80.5952   22.2500  -73.0025 H         1 UNK         0.0807 
    122 H122      -79.2841   24.7931  -75.4021 H         1 UNK         0.2946 
    123 H123      -78.9357   25.5385  -77.9325 H         1 UNK         0.1144 
    124 H124      -80.4085   26.8700  -79.4301 H         1 UNK         0.0793 
    125 H125      -81.8339   26.0740  -78.7612 H         1 UNK         0.0793 
    126 H126      -80.6492   25.1505  -79.6764 H         1 UNK         0.0793 
    127 H127      -80.8809   27.4362  -76.9273 H         1 UNK         0.2896 
@<TRIPOS>BOND
     1    1    2 1    
     2    1   67 1    
     3    1   68 1    
     4    1   69 1    
     5    2    3 2    
     6    2    4 am   BACKBONE|DICT|INTERRES
     7    4    5 1    
     8    4   70 1    
     9    5    6 1    
    10    5   65 1    
    11    5   71 1    
    12    6    7 1    
    13    6   72 1    
    14    6   73 1    
    15    7    8 1    
    16    8    9 1    
    17    8   74 1    
    18    8   75 1    
    19    9   10 ar   
    20    9   14 ar   
    21   10   11 ar   
    22   10   76 1    
    23   11   12 ar   
    24   11   48 1    
    25   12   13 ar   
    26   12   77 1    
    27   13   14 ar   
    28   13   15 1    
    29   14   78 1    
    30   15   16 1    
    31   15   79 1    
    32   15   80 1    
    33   16   17 1    
    34   17   18 1    
    35   17   81 1    
    36   17   82 1    
    37   18   19 1    
    38   18   22 1    
    39   18   83 1    
    40   19   20 am   BACKBONE|DICT|INTERRES
    41   19   21 2    
    42   20   84 1    
    43   20   85 1    
    44   22   23 am   BACKBONE|DICT|INTERRES
    45   22   86 1    
    46   23   24 2    
    47   23   25 1    
    48   25   26 1    
    49   25   27 1    
    50   25   87 1    
    51   26   88 1    
    52   26   89 1    
    53   26   90 1    
    54   27   28 am   BACKBONE|DICT|INTERRES
    55   27   91 1    
    56   28   29 2    
    57   28   30 1    
    58   30   31 1    
    59   30   32 1    
    60   30   92 1    
    61   31   93 1    
    62   31   94 1    
    63   31   95 1    
    64   32   33 am   BACKBONE|DICT|INTERRES
    65   32   96 1    
    66   33   34 2    
    67   33   35 1    
    68   35   36 1    
    69   35   37 1    
    70   35   97 1    
    71   36   98 1    
    72   36   99 1    
    73   36  100 1    
    74   37   38 am   BACKBONE|DICT|INTERRES
    75   37  101 1    
    76   38   39 2    
    77   38   40 1    
    78   40   41 1    
    79   40   42 1    
    80   40  102 1    
    81   41  103 1    
    82   41  104 1    
    83   41  105 1    
    84   42   43 am   BACKBONE|DICT|INTERRES
    85   42  106 1    
    86   43   44 2    
    87   43   45 1    
    88   45   46 1    
    89   45   49 1    
    90   45  107 1    
    91   46   47 1    
    92   46  108 1    
    93   46  109 1    
    94   47   48 1    
    95   48  110 1    
    96   48  111 1    
    97   49   50 am   BACKBONE|DICT|INTERRES
    98   49  112 1    
    99   50   51 2    
   100   50   52 1    
   101   52   53 1    
   102   52   54 1    
   103   52  113 1    
   104   53  114 1    
   105   53  115 1    
   106   53  116 1    
   107   54   55 am   BACKBONE|DICT|INTERRES
   108   54  117 1    
   109   55   56 2    
   110   55   57 1    
   111   57   58 1    
   112   57   59 1    
   113   57  118 1    
   114   58  119 1    
   115   58  120 1    
   116   58  121 1    
   117   59   60 am   BACKBONE|DICT|INTERRES
   118   59  122 1    
   119   60   61 2    
   120   60   62 1    
   121   62   63 1    
   122   62   64 1    
   123   62  123 1    
   124   63  124 1    
   125   63  125 1    
   126   63  126 1    
   127   64   65 am   BACKBONE|DICT|INTERRES
   128   64  127 1    
   129   65   66 2    
@<TRIPOS>SUBSTRUCTURE
     1 UNK         1 GROUP             0       ****    0 ROOT    
