@<TRIPOS>MOLECULE
3R135
127   129    1
SMALL
USER_CHARGES


@<TRIPOS>ATOM
      1 CA        -84.1330   24.0536  -72.2199 C.3       0 UNK        -0.1998 
      2 C         -83.7689   25.3103  -72.9946 C.2       0 UNK         0.4909 
      3 O         -84.2259   25.4861  -74.1250 O.2       0 UNK        -0.5240 
      4 N         -82.9425   26.1822  -72.4008 N.am      1 UNK        -0.4739 
      5 CA        -82.4193   27.4122  -73.0062 C.3       1 UNK         0.0864 
      6 C6        -81.6068   28.2682  -71.9973 C.3       11 UNK        -0.0881 
      7 S7        -80.3580   27.3462  -71.0237 S.3       11 UNK        -0.2682 
      8 C8        -79.0777   28.6144  -70.7632 C.3       11 UNK         0.0289 
      9 C9        -77.8629   28.4046  -71.6579 C.ar      11 UNK        -0.0687 
     10 C10       -77.8879   28.7992  -72.9982 C.ar      11 UNK        -0.0823 
     11 C11       -76.7515   28.6584  -73.8018 C.ar      11 UNK        -0.0830 
     12 C12       -75.5829   28.1160  -73.2531 C.ar      11 UNK        -0.1021 
     13 C13       -75.5450   27.7113  -71.9137 C.ar      11 UNK        -0.0753 
     14 C14       -76.6930   27.8529  -71.1278 C.ar      11 UNK        -0.0933 
     15 C15       -74.2785   27.1306  -71.2847 C.3       11 UNK         0.0166 
     16 S16       -72.7298   28.0063  -71.7092 S.3       11 UNK        -0.2615 
     17 C17       -73.1458   29.7665  -71.3962 C.3       11 UNK        -0.0865 
     18 CA        -72.6061   30.7461  -72.4820 C.3       10 UNK         0.0862 
     19 C         -71.1895   31.2974  -72.1357 C.2       10 UNK         0.5551 
     20 N         -70.2026   31.2454  -73.0223 N.am      10 UNK        -0.7319 
     21 O         -70.9846   31.8071  -71.0365 O.2       10 UNK        -0.5018 
     22 N         -72.7294   30.1742  -73.8304 N.am      10 UNK        -0.4509 
     23 C         -72.8666   30.8440  -74.9777 C.2       10 UNK         0.4899 
     24 O         -73.0299   32.0628  -75.0497 O.2       10 UNK        -0.4839 
     25 CA        -72.7771   29.9831  -76.2553 C.3       9 UNK         0.0222 
     26 CB        -72.6141   30.8238  -77.5386 C.3       9 UNK        -0.1966 
     27 N         -71.7348   28.9465  -76.1739 N.am      9 UNK        -0.4218 
     28 C         -70.4213   29.1419  -75.9571 C.2       9 UNK         0.5020 
     29 O         -69.9172   30.2542  -75.7983 O.2       9 UNK        -0.5274 
     30 CA        -69.5042   27.9070  -75.8464 C.3       8 UNK         0.0270 
     31 CB        -69.1264   27.6643  -74.3747 C.3       8 UNK        -0.1976 
     32 N         -70.0838   26.6792  -76.3907 N.am      8 UNK        -0.4313 
     33 C         -70.3322   26.4411  -77.6853 C.2       8 UNK         0.5041 
     34 O         -69.9822   27.1916  -78.5968 O.2       8 UNK        -0.5577 
     35 CA        -71.1296   25.1639  -78.0235 C.3       7 UNK         0.0284 
     36 CB        -70.1954   24.0877  -78.6011 C.3       7 UNK        -0.1958 
     37 N         -71.8959   24.5854  -76.9076 N.am      7 UNK        -0.4454 
     38 C         -72.8431   25.2151  -76.1986 C.2       7 UNK         0.5089 
     39 O         -73.1318   26.4048  -76.3467 O.2       7 UNK        -0.5125 
     40 CA        -73.5131   24.4002  -75.0821 C.3       6 UNK         0.0408 
     41 CB        -72.6665   24.4644  -73.8005 C.3       6 UNK        -0.1791 
     42 N         -74.8458   24.9254  -74.7933 N.am      6 UNK        -0.4762 
     43 C         -75.9432   24.6591  -75.5126 C.2       6 UNK         0.5007 
     44 O         -75.9829   23.8408  -76.4353 O.2       6 UNK        -0.5032 
     45 CA        -77.2085   25.4575  -75.1413 C.3       5 UNK         0.0783 
     46 C46       -77.5644   26.5493  -76.1822 C.3       11 UNK        -0.0857 
     47 S47       -76.2725   27.8159  -76.4207 S.3       11 UNK        -0.2512 
     48 C48       -76.7857   29.1176  -75.2545 C.3       11 UNK         0.0225 
     49 N         -78.3478   24.5716  -74.9222 N.am      5 UNK        -0.4615 
     50 C         -78.4825   23.7201  -73.8978 C.2       4 UNK         0.5053 
     51 O         -77.5969   23.5108  -73.0678 O.2       4 UNK        -0.5105 
     52 CA        -79.8381   23.0047  -73.7438 C.3       4 UNK         0.0263 
     53 CB        -80.4093   23.2210  -72.3307 C.3       4 UNK        -0.1981 
     54 N         -80.8254   23.4829  -74.7164 N.am      4 UNK        -0.4224 
     55 C         -81.3231   22.7674  -75.7346 C.2       3 UNK         0.4895 
     56 O         -81.0095   21.5990  -75.9644 O.2       3 UNK        -0.5091 
     57 CA        -82.3493   23.4523  -76.6583 C.3       3 UNK         0.0250 
     58 CB        -83.7611   22.9012  -76.3981 C.3       3 UNK        -0.1996 
     59 N         -82.3700   24.9127  -76.5300 N.am      3 UNK        -0.4254 
     60 C         -81.4616   25.7302  -77.0842 C.2       2 UNK         0.5004 
     61 O         -80.5298   25.3363  -77.7850 O.2       2 UNK        -0.5226 
     62 CA        -81.5795   27.2356  -76.7726 C.3       2 UNK         0.0269 
     63 CB        -82.4228   27.9401  -77.8470 C.3       2 UNK        -0.1926 
     64 N         -82.1358   27.5330  -75.4469 N.am      2 UNK        -0.4687 
     65 C         -81.6223   27.0985  -74.2872 C.2       1 UNK         0.5165 
     66 O         -80.6033   26.4140  -74.2152 O.2       1 UNK        -0.5079 
     67 H67       -83.8347   23.1683  -72.7807 H         1 UNK         0.0900 
     68 H68       -85.2102   24.0101  -72.0619 H         1 UNK         0.0900 
     69 H69       -83.6445   24.0192  -71.2463 H         1 UNK         0.0900 
     70 H70       -82.5695   25.9736  -71.4853 H         1 UNK         0.2959 
     71 H71       -83.2877   28.0065  -73.2991 H         1 UNK         0.1079 
     72 H72       -81.1330   29.1058  -72.5124 H         1 UNK         0.0837 
     73 H73       -82.2952   28.7225  -71.2830 H         1 UNK         0.0837 
     74 H74       -78.7783   28.5827  -69.7145 H         1 UNK         0.0685 
     75 H75       -79.4875   29.6129  -70.9204 H         1 UNK         0.0685 
     76 H76       -78.7921   29.2249  -73.4102 H         1 UNK         0.1434 
     77 H77       -74.7022   28.0151  -73.8719 H         1 UNK         0.1329 
     78 H78       -76.6723   27.5484  -70.0902 H         1 UNK         0.1335 
     79 H79       -74.3660   27.1258  -70.1970 H         1 UNK         0.0680 
     80 H80       -74.1857   26.0869  -71.5863 H         1 UNK         0.0680 
     81 H81       -74.2279   29.8814  -71.3469 H         1 UNK         0.1032 
     82 H82       -72.8003   30.0348  -70.3961 H         1 UNK         0.1032 
     83 H83       -73.2503   31.6269  -72.4516 H         1 UNK         0.0461 
     84 H84       -70.3434   30.8754  -73.9555 H         1 UNK         0.3453 
     85 H85       -69.3024   31.6191  -72.7686 H         1 UNK         0.3453 
     86 H86       -72.5835   29.1763  -73.8724 H         1 UNK         0.2984 
     87 H87       -73.7251   29.4502  -76.3304 H         1 UNK         0.0554 
     88 H88       -73.4528   31.5093  -77.6659 H         1 UNK         0.0847 
     89 H89       -72.5773   30.1900  -78.4245 H         1 UNK         0.0847 
     90 H90       -71.7038   31.4238  -77.5170 H         1 UNK         0.0847 
     91 H91       -72.0744   27.9913  -76.2722 H         1 UNK         0.3141 
     92 H92       -68.5928   28.1273  -76.4060 H         1 UNK         0.0743 
     93 H93       -68.6523   28.5466  -73.9417 H         1 UNK         0.0784 
     94 H94       -70.0011   27.4349  -73.7641 H         1 UNK         0.0784 
     95 H95       -68.4199   26.8400  -74.2754 H         1 UNK         0.0784 
     96 H96       -70.3987   25.9922  -75.7222 H         1 UNK         0.3213 
     97 H97       -71.8497   25.4412  -78.7963 H         1 UNK         0.0855 
     98 H98       -69.4706   23.7435  -77.8622 H         1 UNK         0.0814 
     99 H99       -69.6330   24.4738  -79.4527 H         1 UNK         0.0814 
    100 H100      -70.7552   23.2214  -78.9542 H         1 UNK         0.0814 
    101 H101      -71.7091   23.6149  -76.6971 H         1 UNK         0.3105 
    102 H102      -73.5979   23.3582  -75.3982 H         1 UNK         0.0547 
    103 H103      -72.5043   25.4919  -73.4730 H         1 UNK         0.0837 
    104 H104      -73.1418   23.9227  -72.9825 H         1 UNK         0.0837 
    105 H105      -71.6850   24.0145  -73.9547 H         1 UNK         0.0837 
    106 H106      -74.8957   25.6440  -74.0866 H         1 UNK         0.3020 
    107 H107      -77.0327   25.9505  -74.1842 H         1 UNK         0.1245 
    108 H108      -78.4828   27.0541  -75.8821 H         1 UNK         0.0781 
    109 H109      -77.7754   26.0938  -77.1516 H         1 UNK         0.0781 
    110 H110      -76.1179   29.9727  -75.3661 H         1 UNK         0.0836 
    111 H111      -77.7809   29.4678  -75.5331 H         1 UNK         0.0836 
    112 H112      -79.1184   24.6732  -75.5653 H         1 UNK         0.3022 
    113 H113      -79.6508   21.9376  -73.8775 H         1 UNK         0.0747 
    114 H114      -79.7261   22.8468  -71.5673 H         1 UNK         0.0793 
    115 H115      -81.3545   22.6949  -72.2006 H         1 UNK         0.0793 
    116 H116      -80.5789   24.2791  -72.1257 H         1 UNK         0.0793 
    117 H117      -81.0870   24.4590  -74.6224 H         1 UNK         0.3047 
    118 H118      -82.0762   23.2003  -77.6855 H         1 UNK         0.0822 
    119 H119      -83.7933   21.8219  -76.5535 H         1 UNK         0.0807 
    120 H120      -84.4922   23.3462  -77.0731 H         1 UNK         0.0807 
    121 H121      -84.0890   23.0909  -75.3761 H         1 UNK         0.0807 
    122 H122      -83.0867   25.3075  -75.9292 H         1 UNK         0.2946 
    123 H123      -80.5711   27.6521  -76.8067 H         1 UNK         0.1144 
    124 H124      -82.0185   27.7556  -78.8435 H         1 UNK         0.0793 
    125 H125      -82.4331   29.0202  -77.6996 H         1 UNK         0.0793 
    126 H126      -83.4557   27.5894  -77.8443 H         1 UNK         0.0793 
    127 H127      -83.0001   28.0557  -75.4309 H         1 UNK         0.2896 
@<TRIPOS>BOND
     1    1    2 1    
     2    1   67 1    
     3    1   68 1    
     4    1   69 1    
     5    2    3 2    
     6    2    4 am   BACKBONE|DICT|INTERRES
     7    4    5 1    
     8    4   70 1    
     9    5    6 1    
    10    5   65 1    
    11    5   71 1    
    12    6    7 1    
    13    6   72 1    
    14    6   73 1    
    15    7    8 1    
    16    8    9 1    
    17    8   74 1    
    18    8   75 1    
    19    9   10 ar   
    20    9   14 ar   
    21   10   11 ar   
    22   10   76 1    
    23   11   12 ar   
    24   11   48 1    
    25   12   13 ar   
    26   12   77 1    
    27   13   14 ar   
    28   13   15 1    
    29   14   78 1    
    30   15   16 1    
    31   15   79 1    
    32   15   80 1    
    33   16   17 1    
    34   17   18 1    
    35   17   81 1    
    36   17   82 1    
    37   18   19 1    
    38   18   22 1    
    39   18   83 1    
    40   19   20 am   BACKBONE|DICT|INTERRES
    41   19   21 2    
    42   20   84 1    
    43   20   85 1    
    44   22   23 am   BACKBONE|DICT|INTERRES
    45   22   86 1    
    46   23   24 2    
    47   23   25 1    
    48   25   26 1    
    49   25   27 1    
    50   25   87 1    
    51   26   88 1    
    52   26   89 1    
    53   26   90 1    
    54   27   28 am   BACKBONE|DICT|INTERRES
    55   27   91 1    
    56   28   29 2    
    57   28   30 1    
    58   30   31 1    
    59   30   32 1    
    60   30   92 1    
    61   31   93 1    
    62   31   94 1    
    63   31   95 1    
    64   32   33 am   BACKBONE|DICT|INTERRES
    65   32   96 1    
    66   33   34 2    
    67   33   35 1    
    68   35   36 1    
    69   35   37 1    
    70   35   97 1    
    71   36   98 1    
    72   36   99 1    
    73   36  100 1    
    74   37   38 am   BACKBONE|DICT|INTERRES
    75   37  101 1    
    76   38   39 2    
    77   38   40 1    
    78   40   41 1    
    79   40   42 1    
    80   40  102 1    
    81   41  103 1    
    82   41  104 1    
    83   41  105 1    
    84   42   43 am   BACKBONE|DICT|INTERRES
    85   42  106 1    
    86   43   44 2    
    87   43   45 1    
    88   45   46 1    
    89   45   49 1    
    90   45  107 1    
    91   46   47 1    
    92   46  108 1    
    93   46  109 1    
    94   47   48 1    
    95   48  110 1    
    96   48  111 1    
    97   49   50 am   BACKBONE|DICT|INTERRES
    98   49  112 1    
    99   50   51 2    
   100   50   52 1    
   101   52   53 1    
   102   52   54 1    
   103   52  113 1    
   104   53  114 1    
   105   53  115 1    
   106   53  116 1    
   107   54   55 am   BACKBONE|DICT|INTERRES
   108   54  117 1    
   109   55   56 2    
   110   55   57 1    
   111   57   58 1    
   112   57   59 1    
   113   57  118 1    
   114   58  119 1    
   115   58  120 1    
   116   58  121 1    
   117   59   60 am   BACKBONE|DICT|INTERRES
   118   59  122 1    
   119   60   61 2    
   120   60   62 1    
   121   62   63 1    
   122   62   64 1    
   123   62  123 1    
   124   63  124 1    
   125   63  125 1    
   126   63  126 1    
   127   64   65 am   BACKBONE|DICT|INTERRES
   128   64  127 1    
   129   65   66 2    
@<TRIPOS>SUBSTRUCTURE
     1 UNK         1 GROUP             0       ****    0 ROOT    
