@<TRIPOS>MOLECULE
3R135
127   129    1
SMALL
USER_CHARGES


@<TRIPOS>ATOM
      1 CA        -82.2732   22.1606  -70.9981 C.3       0 UNK        -0.1998 
      2 C         -82.5013   23.6558  -71.1621 C.2       0 UNK         0.4909 
      3 O         -83.2409   24.2533  -70.3792 O.2       0 UNK        -0.5240 
      4 N         -81.8764   24.2607  -72.1761 N.am      1 UNK        -0.4739 
      5 CA        -81.9637   25.6867  -72.4877 C.3       1 UNK         0.0864 
      6 C6        -81.0950   26.5866  -71.5634 C.3       11 UNK        -0.0881 
      7 S7        -79.3447   26.0850  -71.3690 S.3       11 UNK        -0.2682 
      8 C8        -78.7293   27.3633  -70.2208 C.3       11 UNK         0.0289 
      9 C9        -77.9407   28.4660  -70.9214 C.ar      11 UNK        -0.0687 
     10 C10       -78.4969   29.1725  -71.9919 C.ar      11 UNK        -0.0823 
     11 C11       -77.7777   30.1816  -72.6349 C.ar      11 UNK        -0.0830 
     12 C12       -76.4954   30.5052  -72.1859 C.ar      11 UNK        -0.1021 
     13 C13       -75.9316   29.8229  -71.1041 C.ar      11 UNK        -0.0753 
     14 C14       -76.6553   28.8013  -70.4795 C.ar      11 UNK        -0.0933 
     15 C15       -74.5433   30.1990  -70.6122 C.3       11 UNK         0.0166 
     16 S16       -73.2837   29.1051  -71.3303 S.3       11 UNK        -0.2615 
     17 C17       -71.8285   30.2075  -71.3670 C.3       11 UNK        -0.0865 
     18 CA        -71.6743   30.9263  -72.7330 C.3       10 UNK         0.0862 
     19 C         -70.4696   31.9049  -72.7110 C.2       10 UNK         0.5551 
     20 N         -70.6942   33.1537  -72.3263 N.am      10 UNK        -0.7319 
     21 O         -69.3320   31.5329  -72.9936 O.2       10 UNK        -0.5018 
     22 N         -71.5952   29.9585  -73.8332 N.am      10 UNK        -0.4509 
     23 C         -71.7216   30.2300  -75.1351 C.2       10 UNK         0.4899 
     24 O         -71.9189   31.3619  -75.5788 O.2       10 UNK        -0.4839 
     25 CA        -71.6569   29.0461  -76.1206 C.3       9 UNK         0.0222 
     26 CB        -70.2691   28.9435  -76.7826 C.3       9 UNK        -0.1966 
     27 N         -72.0936   27.7528  -75.5698 N.am      9 UNK        -0.4218 
     28 C         -71.4978   26.9750  -74.6526 C.2       9 UNK         0.5020 
     29 O         -70.4444   27.2668  -74.0858 O.2       9 UNK        -0.5274 
     30 CA        -72.2079   25.6667  -74.2672 C.3       8 UNK         0.0270 
     31 CB        -73.0900   25.8815  -73.0279 C.3       8 UNK        -0.1976 
     32 N         -73.0185   25.1091  -75.3519 N.am      8 UNK        -0.4313 
     33 C         -72.5141   24.4815  -76.4236 C.2       8 UNK         0.5041 
     34 O         -71.3113   24.2783  -76.5959 O.2       8 UNK        -0.5577 
     35 CA        -73.5164   24.0027  -77.4875 C.3       7 UNK         0.0284 
     36 CB        -74.2060   22.7029  -77.0439 C.3       7 UNK        -0.1958 
     37 N         -74.5255   25.0127  -77.8119 N.am      7 UNK        -0.4454 
     38 C         -74.2658   26.1779  -78.4214 C.2       7 UNK         0.5089 
     39 O         -73.1492   26.5179  -78.8125 O.2       7 UNK        -0.5125 
     40 CA        -75.4508   27.1378  -78.6142 C.3       6 UNK         0.0408 
     41 CB        -76.2312   26.7928  -79.8925 C.3       6 UNK        -0.1791 
     42 N         -76.3619   27.1535  -77.4680 N.am      6 UNK        -0.4762 
     43 C         -76.0499   27.6421  -76.2583 C.2       6 UNK         0.5007 
     44 O         -74.9466   28.1094  -75.9753 O.2       6 UNK        -0.5032 
     45 CA        -77.1494   27.5544  -75.1758 C.3       5 UNK         0.0783 
     46 C46       -78.2844   28.5816  -75.4336 C.3       11 UNK        -0.0857 
     47 S47       -77.7284   30.3239  -75.4012 S.3       11 UNK        -0.2512 
     48 C48       -78.3901   30.9202  -73.8146 C.3       11 UNK         0.0225 
     49 N         -77.6876   26.1926  -75.0540 N.am      5 UNK        -0.4615 
     50 C         -76.9605   25.0842  -74.8402 C.2       4 UNK         0.5053 
     51 O         -75.7487   25.0863  -74.6334 O.2       4 UNK        -0.5105 
     52 CA        -77.6830   23.7315  -74.9558 C.3       4 UNK         0.0263 
     53 CB        -78.3627   23.3494  -73.6341 C.3       4 UNK        -0.1981 
     54 N         -78.6653   23.6938  -76.0392 N.am      4 UNK        -0.4224 
     55 C         -78.4232   23.9139  -77.3377 C.2       3 UNK         0.4895 
     56 O         -77.3003   24.1315  -77.7923 O.2       3 UNK        -0.5091 
     57 CA        -79.6364   23.9481  -78.2883 C.3       3 UNK         0.0250 
     58 CB        -79.9955   22.5334  -78.7824 C.3       3 UNK        -0.1996 
     59 N         -80.8098   24.6572  -77.7463 N.am      3 UNK        -0.4254 
     60 C         -81.5747   24.3205  -76.6976 C.2       2 UNK         0.5004 
     61 O         -81.4477   23.2744  -76.0551 O.2       2 UNK        -0.5226 
     62 CA        -82.6289   25.3470  -76.2552 C.3       2 UNK         0.0269 
     63 CB        -84.0106   24.9809  -76.8200 C.3       2 UNK        -0.1926 
     64 N         -82.7052   25.4173  -74.7931 N.am      2 UNK        -0.4687 
     65 C         -81.7194   25.8575  -73.9968 C.2       1 UNK         0.5165 
     66 O         -80.6558   26.3148  -74.4217 O.2       1 UNK        -0.5079 
     67 H67       -81.8392   21.9531  -70.0204 H         1 UNK         0.0900 
     68 H68       -83.2197   21.6258  -71.0721 H         1 UNK         0.0900 
     69 H69       -81.5995   21.7651  -71.7583 H         1 UNK         0.0900 
     70 H70       -81.3012   23.7210  -72.8079 H         1 UNK         0.2959 
     71 H71       -82.9990   25.9994  -72.3304 H         1 UNK         0.1079 
     72 H72       -81.1509   27.6208  -71.9002 H         1 UNK         0.0837 
     73 H73       -81.5390   26.5874  -70.5668 H         1 UNK         0.0837 
     74 H74       -78.1039   26.8677  -69.4769 H         1 UNK         0.0685 
     75 H75       -79.5590   27.8084  -69.6704 H         1 UNK         0.0685 
     76 H76       -79.4879   28.9295  -72.3410 H         1 UNK         0.1434 
     77 H77       -75.9354   31.2860  -72.6827 H         1 UNK         0.1329 
     78 H78       -76.2141   28.2704  -69.6470 H         1 UNK         0.1335 
     79 H79       -74.4966   30.1402  -69.5237 H         1 UNK         0.0680 
     80 H80       -74.3283   31.2360  -70.8751 H         1 UNK         0.0680 
     81 H81       -70.9425   29.6062  -71.1535 H         1 UNK         0.1032 
     82 H82       -71.9030   30.9301  -70.5520 H         1 UNK         0.1032 
     83 H83       -72.5772   31.5176  -72.9006 H         1 UNK         0.0461 
     84 H84       -69.9221   33.8011  -72.2892 H         1 UNK         0.3453 
     85 H85       -71.6213   33.4675  -72.0846 H         1 UNK         0.3453 
     86 H86       -71.3574   29.0081  -73.5767 H         1 UNK         0.2984 
     87 H87       -72.3762   29.2696  -76.9102 H         1 UNK         0.0554 
     88 H88       -70.0169   29.8705  -77.2991 H         1 UNK         0.0847 
     89 H89       -70.2416   28.1422  -77.5213 H         1 UNK         0.0847 
     90 H90       -69.4805   28.7574  -76.0531 H         1 UNK         0.0847 
     91 H91       -73.0231   27.4765  -75.8717 H         1 UNK         0.3141 
     92 H92       -71.4366   24.9380  -74.0086 H         1 UNK         0.0743 
     93 H93       -72.4981   26.2418  -72.1857 H         1 UNK         0.0784 
     94 H94       -73.8754   26.6158  -73.2147 H         1 UNK         0.0784 
     95 H95       -73.5685   24.9536  -72.7142 H         1 UNK         0.0784 
     96 H96       -74.0304   25.1856  -75.2494 H         1 UNK         0.3213 
     97 H97       -72.9554   23.7923  -78.4007 H         1 UNK         0.0855 
     98 H98       -74.7673   22.8394  -76.1200 H         1 UNK         0.0814 
     99 H99       -73.4727   21.9154  -76.8653 H         1 UNK         0.0814 
    100 H100      -74.8964   22.3385  -77.8049 H         1 UNK         0.0814 
    101 H101      -75.4924   24.7925  -77.5861 H         1 UNK         0.3105 
    102 H102      -75.0446   28.1450  -78.7297 H         1 UNK         0.0547 
    103 H103      -76.6769   25.7989  -79.8422 H         1 UNK         0.0837 
    104 H104      -75.5752   26.8098  -80.7638 H         1 UNK         0.0837 
    105 H105      -77.0301   27.5110  -80.0767 H         1 UNK         0.0837 
    106 H106      -77.2666   26.7251  -77.5986 H         1 UNK         0.3020 
    107 H107      -76.6804   27.7947  -74.2184 H         1 UNK         0.1245 
    108 H108      -79.0764   28.4523  -74.6961 H         1 UNK         0.0781 
    109 H109      -78.7583   28.3953  -76.3989 H         1 UNK         0.0781 
    110 H110      -79.4769   30.8223  -73.8152 H         1 UNK         0.0836 
    111 H111      -78.1820   31.9873  -73.7235 H         1 UNK         0.0836 
    112 H112      -78.6954   26.1018  -75.1243 H         1 UNK         0.3022 
    113 H113      -76.9287   22.9748  -75.1764 H         1 UNK         0.0747 
    114 H114      -79.1959   24.0139  -73.4115 H         1 UNK         0.0793 
    115 H115      -78.7461   22.3294  -73.6653 H         1 UNK         0.0793 
    116 H116      -77.6628   23.4096  -72.7994 H         1 UNK         0.0793 
    117 H117      -79.6315   23.5024  -75.7847 H         1 UNK         0.3047 
    118 H118      -79.3242   24.5247  -79.1608 H         1 UNK         0.0822 
    119 H119      -80.8148   22.5606  -79.5008 H         1 UNK         0.0807 
    120 H120      -80.2877   21.8731  -77.9654 H         1 UNK         0.0807 
    121 H121      -79.1429   22.0700  -79.2806 H         1 UNK         0.0807 
    122 H122      -81.0003   25.5449  -78.1912 H         1 UNK         0.2946 
    123 H123      -82.3447   26.3346  -76.6262 H         1 UNK         0.1144 
    124 H124      -84.7642   25.7153  -76.5348 H         1 UNK         0.0793 
    125 H125      -84.3439   24.0031  -76.4692 H         1 UNK         0.0793 
    126 H126      -83.9905   24.9459  -77.9102 H         1 UNK         0.0793 
    127 H127      -83.5196   24.9999  -74.3660 H         1 UNK         0.2896 
@<TRIPOS>BOND
     1    1    2 1    
     2    1   67 1    
     3    1   68 1    
     4    1   69 1    
     5    2    3 2    
     6    2    4 am   BACKBONE|DICT|INTERRES
     7    4    5 1    
     8    4   70 1    
     9    5    6 1    
    10    5   65 1    
    11    5   71 1    
    12    6    7 1    
    13    6   72 1    
    14    6   73 1    
    15    7    8 1    
    16    8    9 1    
    17    8   74 1    
    18    8   75 1    
    19    9   10 ar   
    20    9   14 ar   
    21   10   11 ar   
    22   10   76 1    
    23   11   12 ar   
    24   11   48 1    
    25   12   13 ar   
    26   12   77 1    
    27   13   14 ar   
    28   13   15 1    
    29   14   78 1    
    30   15   16 1    
    31   15   79 1    
    32   15   80 1    
    33   16   17 1    
    34   17   18 1    
    35   17   81 1    
    36   17   82 1    
    37   18   19 1    
    38   18   22 1    
    39   18   83 1    
    40   19   20 am   BACKBONE|DICT|INTERRES
    41   19   21 2    
    42   20   84 1    
    43   20   85 1    
    44   22   23 am   BACKBONE|DICT|INTERRES
    45   22   86 1    
    46   23   24 2    
    47   23   25 1    
    48   25   26 1    
    49   25   27 1    
    50   25   87 1    
    51   26   88 1    
    52   26   89 1    
    53   26   90 1    
    54   27   28 am   BACKBONE|DICT|INTERRES
    55   27   91 1    
    56   28   29 2    
    57   28   30 1    
    58   30   31 1    
    59   30   32 1    
    60   30   92 1    
    61   31   93 1    
    62   31   94 1    
    63   31   95 1    
    64   32   33 am   BACKBONE|DICT|INTERRES
    65   32   96 1    
    66   33   34 2    
    67   33   35 1    
    68   35   36 1    
    69   35   37 1    
    70   35   97 1    
    71   36   98 1    
    72   36   99 1    
    73   36  100 1    
    74   37   38 am   BACKBONE|DICT|INTERRES
    75   37  101 1    
    76   38   39 2    
    77   38   40 1    
    78   40   41 1    
    79   40   42 1    
    80   40  102 1    
    81   41  103 1    
    82   41  104 1    
    83   41  105 1    
    84   42   43 am   BACKBONE|DICT|INTERRES
    85   42  106 1    
    86   43   44 2    
    87   43   45 1    
    88   45   46 1    
    89   45   49 1    
    90   45  107 1    
    91   46   47 1    
    92   46  108 1    
    93   46  109 1    
    94   47   48 1    
    95   48  110 1    
    96   48  111 1    
    97   49   50 am   BACKBONE|DICT|INTERRES
    98   49  112 1    
    99   50   51 2    
   100   50   52 1    
   101   52   53 1    
   102   52   54 1    
   103   52  113 1    
   104   53  114 1    
   105   53  115 1    
   106   53  116 1    
   107   54   55 am   BACKBONE|DICT|INTERRES
   108   54  117 1    
   109   55   56 2    
   110   55   57 1    
   111   57   58 1    
   112   57   59 1    
   113   57  118 1    
   114   58  119 1    
   115   58  120 1    
   116   58  121 1    
   117   59   60 am   BACKBONE|DICT|INTERRES
   118   59  122 1    
   119   60   61 2    
   120   60   62 1    
   121   62   63 1    
   122   62   64 1    
   123   62  123 1    
   124   63  124 1    
   125   63  125 1    
   126   63  126 1    
   127   64   65 am   BACKBONE|DICT|INTERRES
   128   64  127 1    
   129   65   66 2    
@<TRIPOS>SUBSTRUCTURE
     1 UNK         1 GROUP             0       ****    0 ROOT    
