@<TRIPOS>MOLECULE
3R135
127   129    1
SMALL
USER_CHARGES


@<TRIPOS>ATOM
      1 CA        -82.4914   30.4401  -76.1976 C.3       0 UNK        -0.1998 
      2 C         -81.6941   29.5095  -75.2962 C.2       0 UNK         0.4909 
      3 O         -80.5523   29.1807  -75.6157 O.2       0 UNK        -0.5240 
      4 N         -82.2841   29.0935  -74.1699 N.am      1 UNK        -0.4739 
      5 CA        -81.6838   28.1622  -73.2076 C.3       1 UNK         0.0864 
      6 C6        -82.2875   28.3293  -71.7881 C.3       11 UNK        -0.0881 
      7 S7        -82.1616   30.0459  -71.1715 S.3       11 UNK        -0.2682 
      8 C8        -80.7168   29.9682  -70.0601 C.3       11 UNK         0.0289 
      9 C9        -79.4478   29.4935  -70.7594 C.ar      11 UNK        -0.0687 
     10 C10       -78.7385   28.4016  -70.2533 C.ar      11 UNK        -0.0823 
     11 C11       -77.5751   27.9439  -70.8796 C.ar      11 UNK        -0.0830 
     12 C12       -77.1341   28.5889  -72.0452 C.ar      11 UNK        -0.1021 
     13 C13       -77.8357   29.6815  -72.5653 C.ar      11 UNK        -0.0753 
     14 C14       -78.9776   30.1423  -71.9046 C.ar      11 UNK        -0.0933 
     15 C15       -77.3921   30.3465  -73.8607 C.3       11 UNK         0.0166 
     16 S16       -75.8896   31.3546  -73.6451 S.3       11 UNK        -0.2615 
     17 C17       -74.6043   30.2609  -74.3409 C.3       11 UNK        -0.0865 
     18 CA        -73.2701   30.2995  -73.5508 C.3       10 UNK         0.0862 
     19 C         -73.3445   29.4494  -72.2531 C.2       10 UNK         0.5551 
     20 N         -73.2408   28.1311  -72.3579 N.am      10 UNK        -0.7319 
     21 O         -73.4740   29.9867  -71.1562 O.2       10 UNK        -0.5018 
     22 N         -72.1471   29.9187  -74.4191 N.am      10 UNK        -0.4509 
     23 C         -70.8486   29.9825  -74.1024 C.2       10 UNK         0.4899 
     24 O         -70.4226   30.4638  -73.0512 O.2       10 UNK        -0.4839 
     25 CA        -69.8656   29.3999  -75.1424 C.3       9 UNK         0.0222 
     26 CB        -68.3923   29.5721  -74.7262 C.3       9 UNK        -0.1966 
     27 N         -70.1176   27.9800  -75.4202 N.am      9 UNK        -0.4218 
     28 C         -71.1429   27.4993  -76.1359 C.2       9 UNK         0.5020 
     29 O         -71.9840   28.2268  -76.6709 O.2       9 UNK        -0.5274 
     30 CA        -71.2494   25.9675  -76.2515 C.3       8 UNK         0.0270 
     31 CB        -71.2418   25.2850  -74.8695 C.3       8 UNK        -0.1976 
     32 N         -72.4858   25.6058  -76.9441 N.am      8 UNK        -0.4313 
     33 C         -72.5980   25.3868  -78.2607 C.2       8 UNK         0.5041 
     34 O         -71.6358   25.3461  -79.0299 O.2       8 UNK        -0.5577 
     35 CA        -74.0136   25.1661  -78.8303 C.3       7 UNK         0.0284 
     36 CB        -74.2448   23.6757  -79.1289 C.3       7 UNK        -0.1958 
     37 N         -75.0807   25.6512  -77.9510 N.am      7 UNK        -0.4454 
     38 C         -75.3755   26.9418  -77.7413 C.2       7 UNK         0.5089 
     39 O         -74.8551   27.8716  -78.3570 O.2       7 UNK        -0.5125 
     40 CA        -76.4159   27.2525  -76.6498 C.3       6 UNK         0.0408 
     41 CB        -77.8180   27.3805  -77.2617 C.3       6 UNK        -0.1791 
     42 N         -76.4533   26.2594  -75.5727 N.am      6 UNK        -0.4762 
     43 C         -75.4540   25.9927  -74.7191 C.2       6 UNK         0.5007 
     44 O         -74.3822   26.5983  -74.7150 O.2       6 UNK        -0.5032 
     45 CA        -75.6650   24.8030  -73.7620 C.3       5 UNK         0.0783 
     46 C46       -76.5097   25.1748  -72.5208 C.3       11 UNK        -0.0857 
     47 S47       -75.5228   25.9879  -71.2296 S.3       11 UNK        -0.2512 
     48 C48       -76.8335   26.7708  -70.2321 C.3       11 UNK         0.0225 
     49 N         -76.2644   23.6770  -74.4762 N.am      5 UNK        -0.4615 
     50 C         -75.5957   22.8237  -75.2603 C.2       4 UNK         0.5053 
     51 O         -74.3786   22.8658  -75.4347 O.2       4 UNK        -0.5105 
     52 CA        -76.4266   21.7442  -75.9777 C.3       4 UNK         0.0263 
     53 CB        -76.4352   20.4435  -75.1592 C.3       4 UNK        -0.1981 
     54 N         -77.8085   22.1588  -76.2430 N.am      4 UNK        -0.4224 
     55 C         -78.1522   23.1086  -77.1239 C.2       3 UNK         0.4895 
     56 O         -77.3429   23.7166  -77.8228 O.2       3 UNK        -0.5091 
     57 CA        -79.6438   23.4762  -77.2037 C.3       3 UNK         0.0250 
     58 CB        -80.3969   22.4853  -78.1058 C.3       3 UNK        -0.1996 
     59 N         -80.3174   23.5700  -75.9009 N.am      3 UNK        -0.4254 
     60 C         -79.9487   24.3910  -74.9078 C.2       2 UNK         0.5004 
     61 O         -78.9252   25.0766  -74.9304 O.2       2 UNK        -0.5226 
     62 CA        -80.8423   24.4362  -73.6609 C.3       2 UNK         0.0269 
     63 CB        -80.2497   23.5691  -72.5390 C.3       2 UNK        -0.1926 
     64 N         -80.9563   25.8193  -73.1930 N.am      2 UNK        -0.4687 
     65 C         -81.8186   26.7078  -73.7030 C.2       1 UNK         0.5165 
     66 O         -82.7034   26.4069  -74.5102 O.2       1 UNK        -0.5079 
     67 H67       -83.4771   30.6596  -75.7876 H         1 UNK         0.0900 
     68 H68       -82.6253   29.9865  -77.1792 H         1 UNK         0.0900 
     69 H69       -81.9601   31.3826  -76.3267 H         1 UNK         0.0900 
     70 H70       -83.2292   29.3823  -73.9636 H         1 UNK         0.2959 
     71 H71       -80.6151   28.3757  -73.1546 H         1 UNK         0.1079 
     72 H72       -81.8001   27.6592  -71.0773 H         1 UNK         0.0837 
     73 H73       -83.3432   28.0510  -71.7884 H         1 UNK         0.0837 
     74 H74       -80.5388   30.9615  -69.6462 H         1 UNK         0.0685 
     75 H75       -80.9621   29.3229  -69.2152 H         1 UNK         0.0685 
     76 H76       -79.0891   27.9078  -69.3568 H         1 UNK         0.1434 
     77 H77       -76.2425   28.2539  -72.5544 H         1 UNK         0.1329 
     78 H78       -79.5258   30.9864  -72.3005 H         1 UNK         0.1335 
     79 H79       -77.2477   29.5884  -74.6304 H         1 UNK         0.0680 
     80 H80       -78.1838   30.9954  -74.2386 H         1 UNK         0.0680 
     81 H81       -74.4414   30.5920  -75.3679 H         1 UNK         0.1032 
     82 H82       -74.9706   29.2368  -74.4203 H         1 UNK         0.1032 
     83 H83       -73.0824   31.3333  -73.2535 H         1 UNK         0.0461 
     84 H84       -73.2348   27.6866  -73.2661 H         1 UNK         0.3453 
     85 H85       -73.3027   27.5676  -71.5255 H         1 UNK         0.3453 
     86 H86       -72.3800   29.4503  -75.2914 H         1 UNK         0.2984 
     87 H87       -70.0114   29.9617  -76.0675 H         1 UNK         0.0554 
     88 H88       -67.7151   29.2150  -75.5023 H         1 UNK         0.0847 
     89 H89       -68.1651   29.0316  -73.8064 H         1 UNK         0.0847 
     90 H90       -68.1553   30.6228  -74.5533 H         1 UNK         0.0847 
     91 H91       -69.4834   27.3228  -74.9892 H         1 UNK         0.3141 
     92 H92       -70.3877   25.6105  -76.8191 H         1 UNK         0.0743 
     93 H93       -71.9820   25.7160  -74.1954 H         1 UNK         0.0784 
     94 H94       -71.4546   24.2188  -74.9546 H         1 UNK         0.0784 
     95 H95       -70.2694   25.3764  -74.3851 H         1 UNK         0.0784 
     96 H96       -73.3343   25.7182  -76.4026 H         1 UNK         0.3213 
     97 H97       -74.0737   25.7156  -79.7722 H         1 UNK         0.0855 
     98 H98       -74.2059   23.0725  -78.2215 H         1 UNK         0.0814 
     99 H99       -73.4840   23.2906  -79.8092 H         1 UNK         0.0814 
    100 H100      -75.2134   23.5104  -79.6012 H         1 UNK         0.0814 
    101 H101      -75.6470   24.9504  -77.4863 H         1 UNK         0.3105 
    102 H102      -76.1467   28.2124  -76.2086 H         1 UNK         0.0547 
    103 H103      -77.8452   28.1654  -78.0184 H         1 UNK         0.0837 
    104 H104      -78.1347   26.4529  -77.7391 H         1 UNK         0.0837 
    105 H105      -78.5583   27.6339  -76.5030 H         1 UNK         0.0837 
    106 H106      -77.3264   25.7442  -75.4639 H         1 UNK         0.3020 
    107 H107      -74.6758   24.4864  -73.4212 H         1 UNK         0.1245 
    108 H108      -76.9169   24.2716  -72.0641 H         1 UNK         0.0781 
    109 H109      -77.3704   25.7895  -72.7909 H         1 UNK         0.0781 
    110 H110      -76.3802   27.1275  -69.3063 H         1 UNK         0.0836 
    111 H111      -77.5504   25.9998  -69.9448 H         1 UNK         0.0836 
    112 H112      -77.2729   23.6206  -74.4483 H         1 UNK         0.3022 
    113 H113      -75.9436   21.5419  -76.9363 H         1 UNK         0.0747 
    114 H114      -76.9533   19.6441  -75.6892 H         1 UNK         0.0793 
    115 H115      -75.4184   20.0968  -74.9683 H         1 UNK         0.0793 
    116 H116      -76.9209   20.5767  -74.1916 H         1 UNK         0.0793 
    117 H117      -78.5374   21.7077  -75.7093 H         1 UNK         0.3047 
    118 H118      -79.7045   24.4637  -77.6659 H         1 UNK         0.0822 
    119 H119      -81.4266   22.8028  -78.2716 H         1 UNK         0.0807 
    120 H120      -80.4189   21.4822  -77.6782 H         1 UNK         0.0807 
    121 H121      -79.9224   22.4115  -79.0856 H         1 UNK         0.0807 
    122 H122      -81.1612   23.0251  -75.7933 H         1 UNK         0.2946 
    123 H123      -81.8336   24.0515  -73.9126 H         1 UNK         0.1144 
    124 H124      -80.8939   23.5687  -71.6595 H         1 UNK         0.0793 
    125 H125      -79.2661   23.9212  -72.2299 H         1 UNK         0.0793 
    126 H126      -80.1409   22.5321  -72.8597 H         1 UNK         0.0793 
    127 H127      -80.2321   26.1410  -72.5672 H         1 UNK         0.2896 
@<TRIPOS>BOND
     1    1    2 1    
     2    1   67 1    
     3    1   68 1    
     4    1   69 1    
     5    2    3 2    
     6    2    4 am   BACKBONE|DICT|INTERRES
     7    4    5 1    
     8    4   70 1    
     9    5    6 1    
    10    5   65 1    
    11    5   71 1    
    12    6    7 1    
    13    6   72 1    
    14    6   73 1    
    15    7    8 1    
    16    8    9 1    
    17    8   74 1    
    18    8   75 1    
    19    9   10 ar   
    20    9   14 ar   
    21   10   11 ar   
    22   10   76 1    
    23   11   12 ar   
    24   11   48 1    
    25   12   13 ar   
    26   12   77 1    
    27   13   14 ar   
    28   13   15 1    
    29   14   78 1    
    30   15   16 1    
    31   15   79 1    
    32   15   80 1    
    33   16   17 1    
    34   17   18 1    
    35   17   81 1    
    36   17   82 1    
    37   18   19 1    
    38   18   22 1    
    39   18   83 1    
    40   19   20 am   BACKBONE|DICT|INTERRES
    41   19   21 2    
    42   20   84 1    
    43   20   85 1    
    44   22   23 am   BACKBONE|DICT|INTERRES
    45   22   86 1    
    46   23   24 2    
    47   23   25 1    
    48   25   26 1    
    49   25   27 1    
    50   25   87 1    
    51   26   88 1    
    52   26   89 1    
    53   26   90 1    
    54   27   28 am   BACKBONE|DICT|INTERRES
    55   27   91 1    
    56   28   29 2    
    57   28   30 1    
    58   30   31 1    
    59   30   32 1    
    60   30   92 1    
    61   31   93 1    
    62   31   94 1    
    63   31   95 1    
    64   32   33 am   BACKBONE|DICT|INTERRES
    65   32   96 1    
    66   33   34 2    
    67   33   35 1    
    68   35   36 1    
    69   35   37 1    
    70   35   97 1    
    71   36   98 1    
    72   36   99 1    
    73   36  100 1    
    74   37   38 am   BACKBONE|DICT|INTERRES
    75   37  101 1    
    76   38   39 2    
    77   38   40 1    
    78   40   41 1    
    79   40   42 1    
    80   40  102 1    
    81   41  103 1    
    82   41  104 1    
    83   41  105 1    
    84   42   43 am   BACKBONE|DICT|INTERRES
    85   42  106 1    
    86   43   44 2    
    87   43   45 1    
    88   45   46 1    
    89   45   49 1    
    90   45  107 1    
    91   46   47 1    
    92   46  108 1    
    93   46  109 1    
    94   47   48 1    
    95   48  110 1    
    96   48  111 1    
    97   49   50 am   BACKBONE|DICT|INTERRES
    98   49  112 1    
    99   50   51 2    
   100   50   52 1    
   101   52   53 1    
   102   52   54 1    
   103   52  113 1    
   104   53  114 1    
   105   53  115 1    
   106   53  116 1    
   107   54   55 am   BACKBONE|DICT|INTERRES
   108   54  117 1    
   109   55   56 2    
   110   55   57 1    
   111   57   58 1    
   112   57   59 1    
   113   57  118 1    
   114   58  119 1    
   115   58  120 1    
   116   58  121 1    
   117   59   60 am   BACKBONE|DICT|INTERRES
   118   59  122 1    
   119   60   61 2    
   120   60   62 1    
   121   62   63 1    
   122   62   64 1    
   123   62  123 1    
   124   63  124 1    
   125   63  125 1    
   126   63  126 1    
   127   64   65 am   BACKBONE|DICT|INTERRES
   128   64  127 1    
   129   65   66 2    
@<TRIPOS>SUBSTRUCTURE
     1 UNK         1 GROUP             0       ****    0 ROOT    
