@<TRIPOS>MOLECULE
3R135
127   129    1
SMALL
USER_CHARGES


@<TRIPOS>ATOM
      1 CA        -82.2158   29.8720  -72.8352 C.3       0 UNK        -0.1998 
      2 C         -83.2018   28.7359  -72.5855 C.2       0 UNK         0.4909 
      3 O         -84.4011   28.9911  -72.4936 O.2       0 UNK        -0.5240 
      4 N         -82.7675   27.4741  -72.4734 N.am      1 UNK        -0.4739 
      5 CA        -81.3919   26.9702  -72.5887 C.3       1 UNK         0.0864 
      6 C6        -80.8428   26.4672  -71.2247 C.3       11 UNK        -0.0881 
      7 S7        -80.6240   27.8212  -70.0190 S.3       11 UNK        -0.2682 
      8 C8        -78.8232   27.7757  -69.6898 C.3       11 UNK         0.0289 
      9 C9        -77.9204   28.0943  -70.8840 C.ar      11 UNK        -0.0687 
     10 C10       -78.3473   28.8960  -71.9498 C.ar      11 UNK        -0.0823 
     11 C11       -77.5132   29.1431  -73.0433 C.ar      11 UNK        -0.0830 
     12 C12       -76.2114   28.6412  -73.0367 C.ar      11 UNK        -0.1021 
     13 C13       -75.7577   27.8612  -71.9710 C.ar      11 UNK        -0.0753 
     14 C14       -76.6174   27.5843  -70.9036 C.ar      11 UNK        -0.0933 
     15 C15       -74.3429   27.3033  -71.9966 C.3       11 UNK         0.0166 
     16 S16       -73.2497   28.0497  -70.7444 S.3       11 UNK        -0.2615 
     17 C17       -73.4132   29.8529  -71.0261 C.3       11 UNK        -0.0865 
     18 CA        -72.2560   30.5122  -71.8223 C.3       10 UNK         0.0862 
     19 C         -70.8744   30.3736  -71.1141 C.2       10 UNK         0.5551 
     20 N         -69.8610   29.7873  -71.7403 N.am      10 UNK        -0.7319 
     21 O         -70.7177   30.8230  -69.9812 O.2       10 UNK        -0.5018 
     22 N         -72.2825   30.1367  -73.2471 N.am      10 UNK        -0.4509 
     23 C         -71.7554   30.8748  -74.2342 C.2       10 UNK         0.4899 
     24 O         -71.2039   31.9606  -74.0473 O.2       10 UNK        -0.4839 
     25 CA        -71.8464   30.3006  -75.6616 C.3       9 UNK         0.0222 
     26 CB        -70.9863   31.0849  -76.6715 C.3       9 UNK        -0.1966 
     27 N         -71.4470   28.8916  -75.6928 N.am      9 UNK        -0.4218 
     28 C         -72.2885   27.8565  -75.6001 C.2       9 UNK         0.5020 
     29 O         -73.5067   27.9780  -75.4781 O.2       9 UNK        -0.5274 
     30 CA        -71.6458   26.4669  -75.5761 C.3       8 UNK         0.0270 
     31 CB        -71.1682   26.1081  -74.1559 C.3       8 UNK        -0.1976 
     32 N         -72.5919   25.4567  -76.0475 N.am      8 UNK        -0.4313 
     33 C         -72.2328   24.3150  -76.6491 C.2       8 UNK         0.5041 
     34 O         -71.0618   24.0001  -76.8705 O.2       8 UNK        -0.5577 
     35 CA        -73.3491   23.3486  -77.0792 C.3       7 UNK         0.0284 
     36 CB        -73.8140   22.4945  -75.8886 C.3       7 UNK        -0.1958 
     37 N         -74.4999   24.0145  -77.6899 N.am      7 UNK        -0.4454 
     38 C         -74.4856   24.6369  -78.8779 C.2       7 UNK         0.5089 
     39 O         -73.4920   24.7192  -79.6004 O.2       7 UNK        -0.5125 
     40 CA        -75.8059   25.2766  -79.3401 C.3       6 UNK         0.0408 
     41 CB        -76.7069   24.2412  -80.0323 C.3       6 UNK        -0.1791 
     42 N         -76.5216   25.8871  -78.2201 N.am      6 UNK        -0.4762 
     43 C         -76.2100   27.0797  -77.6911 C.2       6 UNK         0.5007 
     44 O         -75.3927   27.8520  -78.1927 O.2       6 UNK        -0.5032 
     45 CA        -76.9278   27.4784  -76.3865 C.3       5 UNK         0.0783 
     46 C46       -78.0866   28.4640  -76.6865 C.3       11 UNK        -0.0857 
     47 S47       -79.1342   28.8991  -75.2548 S.3       11 UNK        -0.2512 
     48 C48       -78.0355   29.9336  -74.2331 C.3       11 UNK         0.0225 
     49 N         -77.3567   26.3081  -75.6145 N.am      5 UNK        -0.4615 
     50 C         -76.5276   25.4962  -74.9410 C.2       4 UNK         0.5053 
     51 O         -75.3058   25.6270  -74.9141 O.2       4 UNK        -0.5105 
     52 CA        -77.1608   24.2959  -74.2188 C.3       4 UNK         0.0263 
     53 CB        -77.5978   24.7013  -72.8055 C.3       4 UNK        -0.1981 
     54 N         -78.2947   23.7309  -74.9550 N.am      4 UNK        -0.4224 
     55 C         -78.1846   23.1748  -76.1722 C.2       3 UNK         0.4895 
     56 O         -77.1102   23.0367  -76.7571 O.2       3 UNK        -0.5091 
     57 CA        -79.4748   22.7421  -76.8899 C.3       3 UNK         0.0250 
     58 CB        -79.7002   21.2318  -76.7197 C.3       3 UNK        -0.1996 
     59 N         -80.6772   23.4626  -76.4633 N.am      3 UNK        -0.4254 
     60 C         -80.8649   24.7877  -76.5442 C.2       2 UNK         0.5004 
     61 O         -80.0242   25.5716  -76.9877 O.2       2 UNK        -0.5226 
     62 CA        -82.1977   25.3433  -76.0073 C.3       2 UNK         0.0269 
     63 CB        -83.2603   24.2614  -75.7042 C.3       2 UNK        -0.1926 
     64 N         -82.0043   26.1989  -74.8303 N.am      2 UNK        -0.4687 
     65 C         -81.3687   25.8878  -73.6879 C.2       1 UNK         0.5165 
     66 O         -80.8182   24.8032  -73.4858 O.2       1 UNK        -0.5079 
     67 H67       -81.5324   29.9775  -71.9946 H         1 UNK         0.0900 
     68 H68       -81.6448   29.7079  -73.7477 H         1 UNK         0.0900 
     69 H69       -82.7457   30.8178  -72.9471 H         1 UNK         0.0900 
     70 H70       -83.4594   26.7518  -72.3270 H         1 UNK         0.2959 
     71 H71       -80.7204   27.7442  -72.9550 H         1 UNK         0.1079 
     72 H72       -81.5168   25.7253  -70.7929 H         1 UNK         0.0837 
     73 H73       -79.8861   25.9605  -71.3478 H         1 UNK         0.0837 
     74 H74       -78.5765   26.7901  -69.2916 H         1 UNK         0.0685 
     75 H75       -78.6027   28.4912  -68.8968 H         1 UNK         0.0685 
     76 H76       -79.3392   29.3190  -71.9457 H         1 UNK         0.1434 
     77 H77       -75.5468   28.8480  -73.8632 H         1 UNK         0.1329 
     78 H78       -76.2644   26.9736  -70.0838 H         1 UNK         0.1335 
     79 H79       -74.3817   26.2253  -71.8347 H         1 UNK         0.0680 
     80 H80       -73.8962   27.4400  -72.9796 H         1 UNK         0.0680 
     81 H81       -73.4871   30.3232  -70.0439 H         1 UNK         0.1032 
     82 H82       -74.3630   30.0799  -71.5086 H         1 UNK         0.1032 
     83 H83       -72.4637   31.5840  -71.7938 H         1 UNK         0.0461 
     84 H84       -68.9705   29.7090  -71.2751 H         1 UNK         0.3453 
     85 H85       -69.9798   29.4273  -72.6721 H         1 UNK         0.3453 
     86 H86       -72.7148   29.2531  -73.4752 H         1 UNK         0.2984 
     87 H87       -72.8876   30.3979  -75.9764 H         1 UNK         0.0554 
     88 H88       -71.2953   32.1299  -76.7218 H         1 UNK         0.0847 
     89 H89       -71.0829   30.6746  -77.6769 H         1 UNK         0.0847 
     90 H90       -69.9294   31.0697  -76.4026 H         1 UNK         0.0847 
     91 H91       -70.4549   28.7082  -75.7522 H         1 UNK         0.3141 
     92 H92       -70.7851   26.4927  -76.2482 H         1 UNK         0.0743 
     93 H93       -70.5002   26.8709  -73.7540 H         1 UNK         0.0784 
     94 H94       -72.0048   26.0074  -73.4641 H         1 UNK         0.0784 
     95 H95       -70.6199   25.1660  -74.1504 H         1 UNK         0.0784 
     96 H96       -73.5750   25.6614  -75.8688 H         1 UNK         0.3213 
     97 H97       -72.9283   22.6747  -77.8287 H         1 UNK         0.0855 
     98 H98       -74.2264   23.1087  -75.0884 H         1 UNK         0.0814 
     99 H99       -72.9812   21.9300  -75.4673 H         1 UNK         0.0814 
    100 H100      -74.5764   21.7748  -76.1873 H         1 UNK         0.0814 
    101 H101      -75.3845   23.9342  -77.1985 H         1 UNK         0.3105 
    102 H102      -75.5675   26.0518  -80.0717 H         1 UNK         0.0547 
    103 H103      -77.6353   24.6931  -80.3815 H         1 UNK         0.0837 
    104 H104      -76.9646   23.4137  -79.3713 H         1 UNK         0.0837 
    105 H105      -76.2071   23.8149  -80.9030 H         1 UNK         0.0837 
    106 H106      -77.2094   25.3178  -77.7458 H         1 UNK         0.3020 
    107 H107      -76.1823   28.0072  -75.7940 H         1 UNK         0.1245 
    108 H108      -78.7518   28.0387  -77.4409 H         1 UNK         0.0781 
    109 H109      -77.6964   29.3868  -77.1201 H         1 UNK         0.0781 
    110 H110      -78.5963   30.7985  -73.8757 H         1 UNK         0.0836 
    111 H111      -77.2152   30.3293  -74.8339 H         1 UNK         0.0836 
    112 H112      -78.3481   26.1042  -75.6394 H         1 UNK         0.3022 
    113 H113      -76.4050   23.5135  -74.1294 H         1 UNK         0.0747 
    114 H114      -78.1509   23.9059  -72.3059 H         1 UNK         0.0793 
    115 H115      -76.7300   24.9338  -72.1878 H         1 UNK         0.0793 
    116 H116      -78.2241   25.5927  -72.8282 H         1 UNK         0.0793 
    117 H117      -79.2146   23.8457  -74.5426 H         1 UNK         0.3047 
    118 H118      -79.3327   22.9493  -77.9526 H         1 UNK         0.0822 
    119 H119      -80.5516   20.8876  -77.3072 H         1 UNK         0.0807 
    120 H120      -79.8796   20.9652  -75.6772 H         1 UNK         0.0807 
    121 H121      -78.8289   20.6669  -77.0551 H         1 UNK         0.0807 
    122 H122      -81.4143   22.9064  -76.0546 H         1 UNK         0.2946 
    123 H123      -82.5925   25.9817  -76.7997 H         1 UNK         0.1144 
    124 H124      -83.4576   23.6419  -76.5803 H         1 UNK         0.0793 
    125 H125      -84.2090   24.7188  -75.4229 H         1 UNK         0.0793 
    126 H126      -82.9624   23.6035  -74.8868 H         1 UNK         0.0793 
    127 H127      -82.4056   27.1234  -74.9007 H         1 UNK         0.2896 
@<TRIPOS>BOND
     1    1    2 1    
     2    1   67 1    
     3    1   68 1    
     4    1   69 1    
     5    2    3 2    
     6    2    4 am   BACKBONE|DICT|INTERRES
     7    4    5 1    
     8    4   70 1    
     9    5    6 1    
    10    5   65 1    
    11    5   71 1    
    12    6    7 1    
    13    6   72 1    
    14    6   73 1    
    15    7    8 1    
    16    8    9 1    
    17    8   74 1    
    18    8   75 1    
    19    9   10 ar   
    20    9   14 ar   
    21   10   11 ar   
    22   10   76 1    
    23   11   12 ar   
    24   11   48 1    
    25   12   13 ar   
    26   12   77 1    
    27   13   14 ar   
    28   13   15 1    
    29   14   78 1    
    30   15   16 1    
    31   15   79 1    
    32   15   80 1    
    33   16   17 1    
    34   17   18 1    
    35   17   81 1    
    36   17   82 1    
    37   18   19 1    
    38   18   22 1    
    39   18   83 1    
    40   19   20 am   BACKBONE|DICT|INTERRES
    41   19   21 2    
    42   20   84 1    
    43   20   85 1    
    44   22   23 am   BACKBONE|DICT|INTERRES
    45   22   86 1    
    46   23   24 2    
    47   23   25 1    
    48   25   26 1    
    49   25   27 1    
    50   25   87 1    
    51   26   88 1    
    52   26   89 1    
    53   26   90 1    
    54   27   28 am   BACKBONE|DICT|INTERRES
    55   27   91 1    
    56   28   29 2    
    57   28   30 1    
    58   30   31 1    
    59   30   32 1    
    60   30   92 1    
    61   31   93 1    
    62   31   94 1    
    63   31   95 1    
    64   32   33 am   BACKBONE|DICT|INTERRES
    65   32   96 1    
    66   33   34 2    
    67   33   35 1    
    68   35   36 1    
    69   35   37 1    
    70   35   97 1    
    71   36   98 1    
    72   36   99 1    
    73   36  100 1    
    74   37   38 am   BACKBONE|DICT|INTERRES
    75   37  101 1    
    76   38   39 2    
    77   38   40 1    
    78   40   41 1    
    79   40   42 1    
    80   40  102 1    
    81   41  103 1    
    82   41  104 1    
    83   41  105 1    
    84   42   43 am   BACKBONE|DICT|INTERRES
    85   42  106 1    
    86   43   44 2    
    87   43   45 1    
    88   45   46 1    
    89   45   49 1    
    90   45  107 1    
    91   46   47 1    
    92   46  108 1    
    93   46  109 1    
    94   47   48 1    
    95   48  110 1    
    96   48  111 1    
    97   49   50 am   BACKBONE|DICT|INTERRES
    98   49  112 1    
    99   50   51 2    
   100   50   52 1    
   101   52   53 1    
   102   52   54 1    
   103   52  113 1    
   104   53  114 1    
   105   53  115 1    
   106   53  116 1    
   107   54   55 am   BACKBONE|DICT|INTERRES
   108   54  117 1    
   109   55   56 2    
   110   55   57 1    
   111   57   58 1    
   112   57   59 1    
   113   57  118 1    
   114   58  119 1    
   115   58  120 1    
   116   58  121 1    
   117   59   60 am   BACKBONE|DICT|INTERRES
   118   59  122 1    
   119   60   61 2    
   120   60   62 1    
   121   62   63 1    
   122   62   64 1    
   123   62  123 1    
   124   63  124 1    
   125   63  125 1    
   126   63  126 1    
   127   64   65 am   BACKBONE|DICT|INTERRES
   128   64  127 1    
   129   65   66 2    
@<TRIPOS>SUBSTRUCTURE
     1 UNK         1 GROUP             0       ****    0 ROOT    
