@<TRIPOS>MOLECULE
3R135
127   129    1
SMALL
USER_CHARGES


@<TRIPOS>ATOM
      1 CA        -84.1510   24.9747  -74.7260 C.3       0 UNK        -0.1998 
      2 C         -82.8891   25.6104  -74.1654 C.2       0 UNK         0.4909 
      3 O         -81.8032   25.0529  -74.3340 O.2       0 UNK        -0.5240 
      4 N         -83.0207   26.7761  -73.5134 N.am      1 UNK        -0.4739 
      5 CA        -81.9675   27.5874  -72.8762 C.3       1 UNK         0.0864 
      6 C6        -81.1730   26.8161  -71.7763 C.3       11 UNK        -0.0881 
      7 S7        -80.9649   27.7329  -70.2119 S.3       11 UNK        -0.2682 
      8 C8        -79.8513   29.1162  -70.6462 C.3       11 UNK         0.0289 
      9 C9        -78.5317   28.7082  -71.2981 C.ar      11 UNK        -0.0687 
     10 C10       -77.7790   27.6311  -70.8174 C.ar      11 UNK        -0.0823 
     11 C11       -76.5635   27.2882  -71.4185 C.ar      11 UNK        -0.0830 
     12 C12       -76.0919   28.0383  -72.5005 C.ar      11 UNK        -0.1021 
     13 C13       -76.8269   29.1247  -72.9826 C.ar      11 UNK        -0.0753 
     14 C14       -78.0421   29.4524  -72.3763 C.ar      11 UNK        -0.0933 
     15 C15       -76.3223   29.9445  -74.1624 C.3       11 UNK         0.0166 
     16 S16       -75.6053   31.5288  -73.6219 S.3       11 UNK        -0.2615 
     17 C17       -74.0387   30.9785  -72.8673 C.3       11 UNK        -0.0865 
     18 CA        -72.7973   31.5803  -73.5820 C.3       10 UNK         0.0862 
     19 C         -72.3373   32.8961  -72.8925 C.2       10 UNK         0.5551 
     20 N         -72.7934   34.0434  -73.3757 N.am      10 UNK        -0.7319 
     21 O         -71.6104   32.8787  -71.9006 O.2       10 UNK        -0.5018 
     22 N         -71.7418   30.5664  -73.7030 N.am      10 UNK        -0.4509 
     23 C         -70.5312   30.7152  -74.2493 C.2       10 UNK         0.4899 
     24 O         -70.1205   31.7556  -74.7638 O.2       10 UNK        -0.4839 
     25 CA        -69.6282   29.4690  -74.2434 C.3       9 UNK         0.0222 
     26 CB        -69.3059   28.9977  -72.8100 C.3       9 UNK        -0.1966 
     27 N         -70.1400   28.3706  -75.0757 N.am      9 UNK        -0.4218 
     28 C         -71.2651   27.6548  -74.9283 C.2       9 UNK         0.5020 
     29 O         -72.0643   27.7843  -73.9959 O.2       9 UNK        -0.5274 
     30 CA        -71.5170   26.5804  -75.9978 C.3       8 UNK         0.0270 
     31 CB        -71.1049   25.1967  -75.4717 C.3       8 UNK        -0.1976 
     32 N         -72.9184   26.5470  -76.4215 N.am      8 UNK        -0.4313 
     33 C         -73.5168   27.5150  -77.1342 C.2       8 UNK         0.5041 
     34 O         -72.9319   28.5353  -77.5045 O.2       8 UNK        -0.5577 
     35 CA        -75.0057   27.3233  -77.5044 C.3       7 UNK         0.0284 
     36 CB        -75.4014   28.0652  -78.7979 C.3       7 UNK        -0.1958 
     37 N         -75.4370   25.9230  -77.5651 N.am      7 UNK        -0.4454 
     38 C         -74.9415   24.9319  -78.3228 C.2       7 UNK         0.5089 
     39 O         -74.0778   25.0930  -79.1864 O.2       7 UNK        -0.5125 
     40 CA        -75.4853   23.5136  -78.0335 C.3       6 UNK         0.0408 
     41 CB        -74.4871   22.4073  -78.4327 C.3       6 UNK        -0.1791 
     42 N         -75.9279   23.3250  -76.6428 N.am      6 UNK        -0.4762 
     43 C         -75.2057   23.5241  -75.5252 C.2       6 UNK         0.5007 
     44 O         -74.0156   23.8378  -75.5454 O.2       6 UNK        -0.5032 
     45 CA        -75.9266   23.4264  -74.1634 C.3       5 UNK         0.0783 
     46 C46       -75.6203   24.6736  -73.2970 C.3       11 UNK        -0.0857 
     47 S47       -76.3068   24.5376  -71.6134 S.3       11 UNK        -0.2512 
     48 C48       -75.7561   26.1129  -70.8884 C.3       11 UNK         0.0225 
     49 N         -77.3697   23.2620  -74.3501 N.am      5 UNK        -0.4615 
     50 C         -78.0602   22.1387  -74.1261 C.2       4 UNK         0.5053 
     51 O         -77.5599   21.0977  -73.6997 O.2       4 UNK        -0.5105 
     52 CA        -79.5668   22.1725  -74.4473 C.3       4 UNK         0.0263 
     53 CB        -80.3771   22.4079  -73.1624 C.3       4 UNK        -0.1981 
     54 N         -79.9410   23.1812  -75.4465 N.am      4 UNK        -0.4224 
     55 C         -79.5152   23.1905  -76.7190 C.2       3 UNK         0.4895 
     56 O         -78.7745   22.3314  -77.1970 O.2       3 UNK        -0.5091 
     57 CA        -79.9311   24.3815  -77.5970 C.3       3 UNK         0.0250 
     58 CB        -81.2998   24.1161  -78.2437 C.3       3 UNK        -0.1996 
     59 N         -79.9694   25.6664  -76.8939 N.am      3 UNK        -0.4254 
     60 C         -78.9456   26.2515  -76.2540 C.2       2 UNK         0.5004 
     61 O         -77.8332   25.7445  -76.1121 O.2       2 UNK        -0.5226 
     62 CA        -79.2519   27.6026  -75.6070 C.3       2 UNK         0.0269 
     63 CB        -79.5507   28.6777  -76.6714 C.3       2 UNK        -0.1926 
     64 N         -80.3616   27.3808  -74.6882 N.am      2 UNK        -0.4687 
     65 C         -81.0150   28.2385  -73.9027 C.2       1 UNK         0.5165 
     66 O         -80.8941   29.4626  -73.9455 O.2       1 UNK        -0.5079 
     67 H67       -85.0423   25.5534  -74.4850 H         1 UNK         0.0900 
     68 H68       -84.2760   23.9723  -74.3176 H         1 UNK         0.0900 
     69 H69       -84.0795   24.8942  -75.8102 H         1 UNK         0.0900 
     70 H70       -83.9458   27.1786  -73.4471 H         1 UNK         0.2959 
     71 H71       -82.5060   28.4077  -72.3984 H         1 UNK         0.1079 
     72 H72       -80.1979   26.4671  -72.1227 H         1 UNK         0.0837 
     73 H73       -81.7062   25.9034  -71.5061 H         1 UNK         0.0837 
     74 H74       -80.3987   29.8085  -71.2870 H         1 UNK         0.0685 
     75 H75       -79.6230   29.6694  -69.7345 H         1 UNK         0.0685 
     76 H76       -78.1414   27.0550  -69.9771 H         1 UNK         0.1434 
     77 H77       -75.1517   27.7746  -72.9661 H         1 UNK         0.1329 
     78 H78       -78.6079   30.2953  -72.7497 H         1 UNK         0.1335 
     79 H79       -75.5841   29.3860  -74.7402 H         1 UNK         0.0680 
     80 H80       -77.1511   30.1491  -74.8419 H         1 UNK         0.0680 
     81 H81       -74.0053   29.8899  -72.9070 H         1 UNK         0.1032 
     82 H82       -74.0544   31.2148  -71.8012 H         1 UNK         0.1032 
     83 H83       -73.0638   31.8207  -74.6134 H         1 UNK         0.0461 
     84 H84       -72.5209   34.9072  -72.9334 H         1 UNK         0.3453 
     85 H85       -73.4148   34.0596  -74.1695 H         1 UNK         0.3453 
     86 H86       -71.9824   29.6267  -73.4036 H         1 UNK         0.2984 
     87 H87       -68.6831   29.7676  -74.7002 H         1 UNK         0.0554 
     88 H88       -68.5750   28.1892  -72.8162 H         1 UNK         0.0847 
     89 H89       -70.1894   28.6416  -72.2797 H         1 UNK         0.0847 
     90 H90       -68.8823   29.8116  -72.2202 H         1 UNK         0.0847 
     91 H91       -69.5802   28.1763  -75.8950 H         1 UNK         0.3141 
     92 H92       -70.9114   26.8044  -76.8787 H         1 UNK         0.0743 
     93 H93       -71.6731   24.9196  -74.5825 H         1 UNK         0.0784 
     94 H94       -71.2617   24.4225  -76.2233 H         1 UNK         0.0784 
     95 H95       -70.0482   25.1786  -75.2016 H         1 UNK         0.0784 
     96 H96       -73.4512   25.7273  -76.1493 H         1 UNK         0.3213 
     97 H97       -75.5723   27.7698  -76.6861 H         1 UNK         0.0855 
     98 H98       -75.2175   29.1365  -78.7086 H         1 UNK         0.0814 
     99 H99       -76.4610   27.9381  -79.0193 H         1 UNK         0.0814 
    100 H100      -74.8326   27.7077  -79.6568 H         1 UNK         0.0814 
    101 H101      -76.1953   25.6830  -76.9273 H         1 UNK         0.3105 
    102 H102      -76.3759   23.3985  -78.6528 H         1 UNK         0.0547 
    103 H103      -74.2556   22.4528  -79.4975 H         1 UNK         0.0837 
    104 H104      -73.5450   22.4991  -77.8913 H         1 UNK         0.0837 
    105 H105      -74.8937   21.4159  -78.2341 H         1 UNK         0.0837 
    106 H106      -76.9016   23.0616  -76.5372 H         1 UNK         0.3020 
    107 H107      -75.5073   22.5516  -73.6616 H         1 UNK         0.1245 
    108 H108      -76.0254   25.5672  -73.7746 H         1 UNK         0.0781 
    109 H109      -74.5439   24.8315  -73.2019 H         1 UNK         0.0781 
    110 H110      -74.6919   26.2570  -71.0824 H         1 UNK         0.0836 
    111 H111      -75.8601   26.0560  -69.8038 H         1 UNK         0.0836 
    112 H112      -77.8530   24.0693  -74.7246 H         1 UNK         0.3022 
    113 H113      -79.8363   21.1936  -74.8490 H         1 UNK         0.0747 
    114 H114      -81.4491   22.3590  -73.3543 H         1 UNK         0.0793 
    115 H115      -80.1474   21.6526  -72.4096 H         1 UNK         0.0793 
    116 H116      -80.1601   23.3832  -72.7239 H         1 UNK         0.0793 
    117 H117      -80.5709   23.9164  -75.1302 H         1 UNK         0.3047 
    118 H118      -79.1882   24.4722  -78.3923 H         1 UNK         0.0822 
    119 H119      -81.5639   24.9012  -78.9525 H         1 UNK         0.0807 
    120 H120      -82.0933   24.0550  -77.4975 H         1 UNK         0.0807 
    121 H121      -81.2961   23.1740  -78.7939 H         1 UNK         0.0807 
    122 H122      -80.8502   26.1595  -76.9161 H         1 UNK         0.2946 
    123 H123      -78.3791   27.9013  -75.0256 H         1 UNK         0.1144 
    124 H124      -78.7619   28.7099  -77.4245 H         1 UNK         0.0793 
    125 H125      -79.6044   29.6722  -76.2293 H         1 UNK         0.0793 
    126 H126      -80.4922   28.4919  -77.1887 H         1 UNK         0.0793 
    127 H127      -80.6276   26.4041  -74.5693 H         1 UNK         0.2896 
@<TRIPOS>BOND
     1    1    2 1    
     2    1   67 1    
     3    1   68 1    
     4    1   69 1    
     5    2    3 2    
     6    2    4 am   BACKBONE|DICT|INTERRES
     7    4    5 1    
     8    4   70 1    
     9    5    6 1    
    10    5   65 1    
    11    5   71 1    
    12    6    7 1    
    13    6   72 1    
    14    6   73 1    
    15    7    8 1    
    16    8    9 1    
    17    8   74 1    
    18    8   75 1    
    19    9   10 ar   
    20    9   14 ar   
    21   10   11 ar   
    22   10   76 1    
    23   11   12 ar   
    24   11   48 1    
    25   12   13 ar   
    26   12   77 1    
    27   13   14 ar   
    28   13   15 1    
    29   14   78 1    
    30   15   16 1    
    31   15   79 1    
    32   15   80 1    
    33   16   17 1    
    34   17   18 1    
    35   17   81 1    
    36   17   82 1    
    37   18   19 1    
    38   18   22 1    
    39   18   83 1    
    40   19   20 am   BACKBONE|DICT|INTERRES
    41   19   21 2    
    42   20   84 1    
    43   20   85 1    
    44   22   23 am   BACKBONE|DICT|INTERRES
    45   22   86 1    
    46   23   24 2    
    47   23   25 1    
    48   25   26 1    
    49   25   27 1    
    50   25   87 1    
    51   26   88 1    
    52   26   89 1    
    53   26   90 1    
    54   27   28 am   BACKBONE|DICT|INTERRES
    55   27   91 1    
    56   28   29 2    
    57   28   30 1    
    58   30   31 1    
    59   30   32 1    
    60   30   92 1    
    61   31   93 1    
    62   31   94 1    
    63   31   95 1    
    64   32   33 am   BACKBONE|DICT|INTERRES
    65   32   96 1    
    66   33   34 2    
    67   33   35 1    
    68   35   36 1    
    69   35   37 1    
    70   35   97 1    
    71   36   98 1    
    72   36   99 1    
    73   36  100 1    
    74   37   38 am   BACKBONE|DICT|INTERRES
    75   37  101 1    
    76   38   39 2    
    77   38   40 1    
    78   40   41 1    
    79   40   42 1    
    80   40  102 1    
    81   41  103 1    
    82   41  104 1    
    83   41  105 1    
    84   42   43 am   BACKBONE|DICT|INTERRES
    85   42  106 1    
    86   43   44 2    
    87   43   45 1    
    88   45   46 1    
    89   45   49 1    
    90   45  107 1    
    91   46   47 1    
    92   46  108 1    
    93   46  109 1    
    94   47   48 1    
    95   48  110 1    
    96   48  111 1    
    97   49   50 am   BACKBONE|DICT|INTERRES
    98   49  112 1    
    99   50   51 2    
   100   50   52 1    
   101   52   53 1    
   102   52   54 1    
   103   52  113 1    
   104   53  114 1    
   105   53  115 1    
   106   53  116 1    
   107   54   55 am   BACKBONE|DICT|INTERRES
   108   54  117 1    
   109   55   56 2    
   110   55   57 1    
   111   57   58 1    
   112   57   59 1    
   113   57  118 1    
   114   58  119 1    
   115   58  120 1    
   116   58  121 1    
   117   59   60 am   BACKBONE|DICT|INTERRES
   118   59  122 1    
   119   60   61 2    
   120   60   62 1    
   121   62   63 1    
   122   62   64 1    
   123   62  123 1    
   124   63  124 1    
   125   63  125 1    
   126   63  126 1    
   127   64   65 am   BACKBONE|DICT|INTERRES
   128   64  127 1    
   129   65   66 2    
@<TRIPOS>SUBSTRUCTURE
     1 UNK         1 GROUP             0       ****    0 ROOT    
