@<TRIPOS>MOLECULE
3R135
127   129    1
SMALL
USER_CHARGES


@<TRIPOS>ATOM
      1 CA        -83.8985   27.3242  -69.6013 C.3       0 UNK        -0.1998 
      2 C         -83.2027   27.2179  -70.9500 C.2       0 UNK         0.4909 
      3 O         -81.9760   27.1244  -70.9850 O.2       0 UNK        -0.5240 
      4 N         -83.9909   27.2186  -72.0374 N.am      1 UNK        -0.4739 
      5 CA        -83.6677   27.1599  -73.4785 C.3       1 UNK         0.0864 
      6 C6        -83.2308   28.5126  -74.1151 C.3       11 UNK        -0.0881 
      7 S7        -81.8074   29.3585  -73.3502 S.3       11 UNK        -0.2682 
      8 C8        -80.4376   28.7851  -74.3962 C.3       11 UNK         0.0289 
      9 C9        -79.0978   29.1129  -73.7581 C.ar      11 UNK        -0.0687 
     10 C10       -78.6491   28.3666  -72.6675 C.ar      11 UNK        -0.0823 
     11 C11       -77.4236   28.6577  -72.0629 C.ar      11 UNK        -0.0830 
     12 C12       -76.6431   29.7060  -72.5609 C.ar      11 UNK        -0.1021 
     13 C13       -77.0780   30.4651  -73.6586 C.ar      11 UNK        -0.0753 
     14 C14       -78.3091   30.1568  -74.2476 C.ar      11 UNK        -0.0933 
     15 C15       -76.2887   31.6423  -74.2392 C.3       11 UNK         0.0166 
     16 S16       -74.6482   31.9671  -73.5071 S.3       11 UNK        -0.2615 
     17 C17       -73.6589   30.6443  -74.2773 C.3       11 UNK        -0.0865 
     18 CA        -72.3594   30.3423  -73.4862 C.3       10 UNK         0.0862 
     19 C         -72.6340   29.4896  -72.2174 C.2       10 UNK         0.5551 
     20 N         -72.8893   28.1968  -72.3653 N.am      10 UNK        -0.7319 
     21 O         -72.6002   29.9991  -71.1001 O.2       10 UNK        -0.5018 
     22 N         -71.3446   29.7483  -74.3642 N.am      10 UNK        -0.4509 
     23 C         -70.0629   29.5265  -74.0518 C.2       10 UNK         0.4899 
     24 O         -69.5441   29.8790  -72.9912 O.2       10 UNK        -0.4839 
     25 CA        -69.2283   28.7740  -75.1119 C.3       9 UNK         0.0222 
     26 CB        -67.7498   28.6245  -74.7056 C.3       9 UNK        -0.1966 
     27 N         -69.7757   27.4452  -75.4117 N.am      9 UNK        -0.4218 
     28 C         -70.8930   27.2048  -76.1107 C.2       9 UNK         0.5020 
     29 O         -71.5669   28.1014  -76.6259 O.2       9 UNK        -0.5274 
     30 CA        -71.3321   25.7330  -76.2211 C.3       8 UNK         0.0270 
     31 CB        -71.4771   25.0750  -74.8351 C.3       8 UNK        -0.1976 
     32 N         -72.6077   25.6247  -76.9301 N.am      8 UNK        -0.4313 
     33 C         -72.7437   25.6051  -78.2622 C.2       8 UNK         0.5041 
     34 O         -71.7916   25.5633  -79.0442 O.2       8 UNK        -0.5577 
     35 CA        -74.1736   25.6171  -78.8342 C.3       7 UNK         0.0284 
     36 CB        -74.5659   24.2085  -79.3097 C.3       7 UNK        -0.1958 
     37 N         -75.1847   26.1028  -77.8911 N.am      7 UNK        -0.4454 
     38 C         -75.3600   27.3844  -77.5387 C.2       7 UNK         0.5089 
     39 O         -74.7219   28.3218  -78.0170 O.2       7 UNK        -0.5125 
     40 CA        -76.4311   27.6679  -76.4681 C.3       6 UNK         0.0408 
     41 CB        -77.8112   27.8122  -77.1272 C.3       6 UNK        -0.1791 
     42 N         -76.4933   26.6441  -75.4194 N.am      6 UNK        -0.4762 
     43 C         -75.4874   26.3466  -74.5817 C.2       6 UNK         0.5007 
     44 O         -74.3963   26.9186  -74.5935 O.2       6 UNK        -0.5032 
     45 CA        -75.7051   25.1516  -73.6309 C.3       5 UNK         0.0783 
     46 C46       -76.5255   25.5099  -72.3693 C.3       11 UNK        -0.0857 
     47 S47       -75.6649   26.6485  -71.2364 S.3       11 UNK        -0.2512 
     48 C48       -76.9660   27.8633  -70.8461 C.3       11 UNK         0.0225 
     49 N         -76.3265   24.0409  -74.3525 N.am      5 UNK        -0.4615 
     50 C         -75.6862   23.2316  -75.2060 C.2       4 UNK         0.5053 
     51 O         -74.4785   23.2910  -75.4289 O.2       4 UNK        -0.5105 
     52 CA        -76.5400   22.1899  -75.9516 C.3       4 UNK         0.0263 
     53 CB        -76.5855   20.8709  -75.1643 C.3       4 UNK        -0.1981 
     54 N         -77.9078   22.6471  -76.2148 N.am      4 UNK        -0.4224 
     55 C         -78.2213   23.6574  -77.0386 C.2       3 UNK         0.4895 
     56 O         -77.3927   24.2790  -77.7004 O.2       3 UNK        -0.5091 
     57 CA        -79.6986   24.0796  -77.0997 C.3       3 UNK         0.0250 
     58 CB        -80.4462   23.2717  -78.1719 C.3       3 UNK        -0.1996 
     59 N         -80.4023   23.9660  -75.8176 N.am      3 UNK        -0.4254 
     60 C         -80.0663   24.6222  -74.6984 C.2       2 UNK         0.5004 
     61 O         -79.0937   25.3751  -74.6137 O.2       2 UNK        -0.5226 
     62 CA        -80.9517   24.3786  -73.4645 C.3       2 UNK         0.0269 
     63 CB        -80.1004   24.0897  -72.2162 C.3       2 UNK        -0.1926 
     64 N         -81.8331   25.5126  -73.1849 N.am      2 UNK        -0.4687 
     65 C         -82.8212   25.9592  -73.9673 C.2       1 UNK         0.5165 
     66 O         -83.1103   25.4346  -75.0441 O.2       1 UNK        -0.5079 
     67 H67       -83.5470   28.2076  -69.0689 H         1 UNK         0.0900 
     68 H68       -84.9811   27.3982  -69.7022 H         1 UNK         0.0900 
     69 H69       -83.6733   26.4483  -68.9935 H         1 UNK         0.0900 
     70 H70       -84.9856   27.2689  -71.8653 H         1 UNK         0.2959 
     71 H71       -84.6443   26.9536  -73.9210 H         1 UNK         0.1079 
     72 H72       -84.0687   29.2084  -74.0511 H         1 UNK         0.0837 
     73 H73       -83.0477   28.3954  -75.1853 H         1 UNK         0.0837 
     74 H74       -80.5076   27.7081  -74.5448 H         1 UNK         0.0685 
     75 H75       -80.5231   29.2420  -75.3831 H         1 UNK         0.0685 
     76 H76       -79.2682   27.5656  -72.2855 H         1 UNK         0.1434 
     77 H77       -75.7023   29.9226  -72.0764 H         1 UNK         0.1329 
     78 H78       -78.6593   30.7386  -75.0893 H         1 UNK         0.1335 
     79 H79       -76.8890   32.5449  -74.1163 H         1 UNK         0.0680 
     80 H80       -76.1679   31.4988  -75.3142 H         1 UNK         0.0680 
     81 H81       -73.4159   30.9804  -75.2867 H         1 UNK         0.1032 
     82 H82       -74.2624   29.7425  -74.4044 H         1 UNK         0.1032 
     83 H83       -71.9407   31.2940  -73.1522 H         1 UNK         0.0461 
     84 H84       -73.0458   27.8019  -73.2841 H         1 UNK         0.3453 
     85 H85       -73.0857   27.6432  -71.5475 H         1 UNK         0.3453 
     86 H86       -71.6728   29.3571  -75.2441 H         1 UNK         0.2984 
     87 H87       -69.2582   29.3718  -76.0254 H         1 UNK         0.0554 
     88 H88       -67.2967   29.5984  -74.5149 H         1 UNK         0.0847 
     89 H89       -67.1664   28.1492  -75.4944 H         1 UNK         0.0847 
     90 H90       -67.6368   28.0297  -73.7983 H         1 UNK         0.0847 
     91 H91       -69.2911   26.6614  -74.9985 H         1 UNK         0.3141 
     92 H92       -70.5647   25.1938  -76.7804 H         1 UNK         0.0743 
     93 H93       -72.1444   25.6388  -74.1835 H         1 UNK         0.0784 
     94 H94       -71.8723   24.0624  -74.9185 H         1 UNK         0.0784 
     95 H95       -70.5162   24.9969  -74.3262 H         1 UNK         0.0784 
     96 H96       -73.4411   25.7265  -76.3660 H         1 UNK         0.3213 
     97 H97       -74.1705   26.2815  -79.7009 H         1 UNK         0.0855 
     98 H98       -74.6064   23.5021  -78.4797 H         1 UNK         0.0814 
     99 H99       -73.8455   23.8234  -80.0326 H         1 UNK         0.0814 
    100 H100      -75.5416   24.2111  -79.7960 H         1 UNK         0.0814 
    101 H101      -75.8388   25.4128  -77.5303 H         1 UNK         0.3105 
    102 H102      -76.1811   28.6137  -75.9832 H         1 UNK         0.0547 
    103 H103      -78.0787   26.9265  -77.7032 H         1 UNK         0.0837 
    104 H104      -77.8271   28.6616  -77.8110 H         1 UNK         0.0837 
    105 H105      -78.5923   27.9741  -76.3875 H         1 UNK         0.0837 
    106 H106      -77.3726   26.1469  -75.3111 H         1 UNK         0.3020 
    107 H107      -74.7163   24.8227  -73.3013 H         1 UNK         0.1245 
    108 H108      -76.7430   24.6035  -71.8023 H         1 UNK         0.0781 
    109 H109      -77.4930   25.9190  -72.6511 H         1 UNK         0.0781 
    110 H110      -76.5845   28.5524  -70.0912 H         1 UNK         0.0836 
    111 H111      -77.8089   27.3469  -70.3839 H         1 UNK         0.0836 
    112 H112      -77.3324   23.9756  -74.2823 H         1 UNK         0.3022 
    113 H113      -76.0588   21.9982  -76.9132 H         1 UNK         0.0747 
    114 H114      -77.1186   20.0968  -75.7167 H         1 UNK         0.0793 
    115 H115      -75.5786   20.4957  -74.9751 H         1 UNK         0.0793 
    116 H116      -77.0748   20.9926  -74.1970 H         1 UNK         0.0793 
    117 H117      -78.6531   22.1844  -75.7153 H         1 UNK         0.3047 
    118 H118      -79.7235   25.1320  -77.3893 H         1 UNK         0.0822 
    119 H119      -81.4681   23.6301  -78.2979 H         1 UNK         0.0807 
    120 H120      -80.4897   22.2105  -77.9235 H         1 UNK         0.0807 
    121 H121      -79.9527   23.3599  -79.1410 H         1 UNK         0.0807 
    122 H122      -81.2377   23.3980  -75.8123 H         1 UNK         0.2946 
    123 H123      -81.5778   23.5037  -73.6522 H         1 UNK         0.1144 
    124 H124      -79.3841   23.2883  -72.4016 H         1 UNK         0.0793 
    125 H125      -80.7245   23.7790  -71.3781 H         1 UNK         0.0793 
    126 H126      -79.5384   24.9684  -71.8994 H         1 UNK         0.0793 
    127 H127      -81.6714   26.0297  -72.3209 H         1 UNK         0.2896 
@<TRIPOS>BOND
     1    1    2 1    
     2    1   67 1    
     3    1   68 1    
     4    1   69 1    
     5    2    3 2    
     6    2    4 am   BACKBONE|DICT|INTERRES
     7    4    5 1    
     8    4   70 1    
     9    5    6 1    
    10    5   65 1    
    11    5   71 1    
    12    6    7 1    
    13    6   72 1    
    14    6   73 1    
    15    7    8 1    
    16    8    9 1    
    17    8   74 1    
    18    8   75 1    
    19    9   10 ar   
    20    9   14 ar   
    21   10   11 ar   
    22   10   76 1    
    23   11   12 ar   
    24   11   48 1    
    25   12   13 ar   
    26   12   77 1    
    27   13   14 ar   
    28   13   15 1    
    29   14   78 1    
    30   15   16 1    
    31   15   79 1    
    32   15   80 1    
    33   16   17 1    
    34   17   18 1    
    35   17   81 1    
    36   17   82 1    
    37   18   19 1    
    38   18   22 1    
    39   18   83 1    
    40   19   20 am   BACKBONE|DICT|INTERRES
    41   19   21 2    
    42   20   84 1    
    43   20   85 1    
    44   22   23 am   BACKBONE|DICT|INTERRES
    45   22   86 1    
    46   23   24 2    
    47   23   25 1    
    48   25   26 1    
    49   25   27 1    
    50   25   87 1    
    51   26   88 1    
    52   26   89 1    
    53   26   90 1    
    54   27   28 am   BACKBONE|DICT|INTERRES
    55   27   91 1    
    56   28   29 2    
    57   28   30 1    
    58   30   31 1    
    59   30   32 1    
    60   30   92 1    
    61   31   93 1    
    62   31   94 1    
    63   31   95 1    
    64   32   33 am   BACKBONE|DICT|INTERRES
    65   32   96 1    
    66   33   34 2    
    67   33   35 1    
    68   35   36 1    
    69   35   37 1    
    70   35   97 1    
    71   36   98 1    
    72   36   99 1    
    73   36  100 1    
    74   37   38 am   BACKBONE|DICT|INTERRES
    75   37  101 1    
    76   38   39 2    
    77   38   40 1    
    78   40   41 1    
    79   40   42 1    
    80   40  102 1    
    81   41  103 1    
    82   41  104 1    
    83   41  105 1    
    84   42   43 am   BACKBONE|DICT|INTERRES
    85   42  106 1    
    86   43   44 2    
    87   43   45 1    
    88   45   46 1    
    89   45   49 1    
    90   45  107 1    
    91   46   47 1    
    92   46  108 1    
    93   46  109 1    
    94   47   48 1    
    95   48  110 1    
    96   48  111 1    
    97   49   50 am   BACKBONE|DICT|INTERRES
    98   49  112 1    
    99   50   51 2    
   100   50   52 1    
   101   52   53 1    
   102   52   54 1    
   103   52  113 1    
   104   53  114 1    
   105   53  115 1    
   106   53  116 1    
   107   54   55 am   BACKBONE|DICT|INTERRES
   108   54  117 1    
   109   55   56 2    
   110   55   57 1    
   111   57   58 1    
   112   57   59 1    
   113   57  118 1    
   114   58  119 1    
   115   58  120 1    
   116   58  121 1    
   117   59   60 am   BACKBONE|DICT|INTERRES
   118   59  122 1    
   119   60   61 2    
   120   60   62 1    
   121   62   63 1    
   122   62   64 1    
   123   62  123 1    
   124   63  124 1    
   125   63  125 1    
   126   63  126 1    
   127   64   65 am   BACKBONE|DICT|INTERRES
   128   64  127 1    
   129   65   66 2    
@<TRIPOS>SUBSTRUCTURE
     1 UNK         1 GROUP             0       ****    0 ROOT    
