@<TRIPOS>MOLECULE
3R135
127   129    1
SMALL
USER_CHARGES


@<TRIPOS>ATOM
      1 CA        -80.7185   24.8451  -70.5840 C.3       0 UNK        -0.1998 
      2 C         -81.6339   25.9072  -71.1737 C.2       0 UNK         0.4909 
      3 O         -82.8550   25.7562  -71.1333 O.2       0 UNK        -0.5240 
      4 N         -81.0501   26.9788  -71.7267 N.am      1 UNK        -0.4739 
      5 CA        -81.7658   28.0618  -72.4151 C.3       1 UNK         0.0864 
      6 C6        -80.8683   29.3143  -72.5846 C.3       11 UNK        -0.0881 
      7 S7        -80.8057   30.3697  -71.0955 S.3       11 UNK        -0.2682 
      8 C8        -79.8138   29.4105  -69.8988 C.3       11 UNK         0.0289 
      9 C9        -78.4716   28.9251  -70.4373 C.ar      11 UNK        -0.0687 
     10 C10       -78.0784   27.6001  -70.2246 C.ar      11 UNK        -0.0823 
     11 C11       -76.8467   27.1333  -70.6930 C.ar      11 UNK        -0.0830 
     12 C12       -75.9931   28.0173  -71.3634 C.ar      11 UNK        -0.1021 
     13 C13       -76.3716   29.3450  -71.5821 C.ar      11 UNK        -0.0753 
     14 C14       -77.6089   29.7941  -71.1128 C.ar      11 UNK        -0.0933 
     15 C15       -75.4445   30.2986  -72.3180 C.3       11 UNK         0.0166 
     16 S16       -75.5450   30.0502  -74.1174 S.3       11 UNK        -0.2615 
     17 C17       -75.0947   31.7080  -74.7462 C.3       11 UNK        -0.0865 
     18 CA        -73.5723   31.9399  -74.9457 C.3       10 UNK         0.0862 
     19 C         -72.8419   32.2726  -73.6096 C.2       10 UNK         0.5551 
     20 N         -71.8075   31.5468  -73.2016 N.am      10 UNK        -0.7319 
     21 O         -73.2202   33.2237  -72.9302 O.2       10 UNK        -0.5018 
     22 N         -72.9647   30.8641  -75.7402 N.am      10 UNK        -0.4509 
     23 C         -71.8374   30.9667  -76.4535 C.2       10 UNK         0.4899 
     24 O         -71.2316   32.0254  -76.6280 O.2       10 UNK        -0.4839 
     25 CA        -71.2967   29.6534  -77.0562 C.3       9 UNK         0.0222 
     26 CB        -69.8114   29.7499  -77.4639 C.3       9 UNK        -0.1966 
     27 N         -71.5185   28.4839  -76.1928 N.am      9 UNK        -0.4218 
     28 C         -71.0972   28.3203  -74.9255 C.2       9 UNK         0.5020 
     29 O         -70.4605   29.1724  -74.3045 O.2       9 UNK        -0.5274 
     30 CA        -71.4699   27.0127  -74.2005 C.3       8 UNK         0.0270 
     31 CB        -72.5419   27.2900  -73.1335 C.3       8 UNK        -0.1976 
     32 N         -71.9453   25.9612  -75.1032 N.am      8 UNK        -0.4313 
     33 C         -71.1551   25.2710  -75.9414 C.2       8 UNK         0.5041 
     34 O         -69.9281   25.3760  -75.9552 O.2       8 UNK        -0.5577 
     35 CA        -71.8280   24.3249  -76.9573 C.3       7 UNK         0.0284 
     36 CB        -71.6855   22.8629  -76.5031 C.3       7 UNK        -0.1958 
     37 N         -73.2438   24.6090  -77.2079 N.am      7 UNK        -0.4454 
     38 C         -73.7465   25.7576  -77.6836 C.2       7 UNK         0.5089 
     39 O         -73.0553   26.7139  -78.0356 O.2       7 UNK        -0.5125 
     40 CA        -75.2820   25.8863  -77.6972 C.3       6 UNK         0.0408 
     41 CB        -75.8234   25.5731  -79.0996 C.3       6 UNK        -0.1791 
     42 N         -75.9652   25.0562  -76.6885 N.am      6 UNK        -0.4762 
     43 C         -75.7612   25.1582  -75.3614 C.2       6 UNK         0.5007 
     44 O         -74.9589   25.9602  -74.8832 O.2       6 UNK        -0.5032 
     45 CA        -76.5110   24.1904  -74.4174 C.3       5 UNK         0.0783 
     46 C46       -76.9713   24.8655  -73.0959 C.3       11 UNK        -0.0857 
     47 S47       -75.6428   24.8604  -71.8423 S.3       11 UNK        -0.2512 
     48 C48       -76.4401   25.6861  -70.4256 C.3       11 UNK         0.0225 
     49 N         -77.6197   23.5153  -75.0991 N.am      5 UNK        -0.4615 
     50 C         -77.6508   22.2072  -75.3976 C.2       4 UNK         0.5053 
     51 O         -76.7561   21.4168  -75.0970 O.2       4 UNK        -0.5105 
     52 CA        -78.8715   21.6745  -76.1765 C.3       4 UNK         0.0263 
     53 CB        -79.8754   21.0232  -75.2113 C.3       4 UNK        -0.1981 
     54 N         -79.5660   22.6901  -76.9710 N.am      4 UNK        -0.4224 
     55 C         -79.0172   23.4126  -77.9575 C.2       3 UNK         0.4895 
     56 O         -77.8773   23.2259  -78.3812 O.2       3 UNK        -0.5091 
     57 CA        -79.8470   24.5795  -78.5270 C.3       3 UNK         0.0250 
     58 CB        -80.4586   24.1882  -79.8816 C.3       3 UNK        -0.1996 
     59 N         -80.9081   25.0836  -77.6436 N.am      3 UNK        -0.4254 
     60 C         -80.7450   25.5381  -76.3922 C.2       2 UNK         0.5004 
     61 O         -79.6646   25.5395  -75.7916 O.2       2 UNK        -0.5226 
     62 CA        -82.0157   26.0184  -75.6820 C.3       2 UNK         0.0269 
     63 CB        -82.9850   24.8498  -75.4164 C.3       2 UNK        -0.1926 
     64 N         -81.6447   26.6320  -74.4122 N.am      2 UNK        -0.4687 
     65 C         -82.3219   27.5960  -73.7784 C.2       1 UNK         0.5165 
     66 O         -83.3529   28.1062  -74.2197 O.2       1 UNK        -0.5079 
     67 H67       -80.7167   24.9110  -69.4963 H         1 UNK         0.0900 
     68 H68       -79.6942   24.9506  -70.9391 H         1 UNK         0.0900 
     69 H69       -81.0667   23.8513  -70.8646 H         1 UNK         0.0900 
     70 H70       -80.0438   27.0618  -71.7173 H         1 UNK         0.2959 
     71 H71       -82.6343   28.3347  -71.8109 H         1 UNK         0.1079 
     72 H72       -81.2512   29.9586  -73.3792 H         1 UNK         0.0837 
     73 H73       -79.8585   29.0420  -72.8967 H         1 UNK         0.0837 
     74 H74       -79.6275   30.0378  -69.0263 H         1 UNK         0.0685 
     75 H75       -80.4166   28.5739  -69.5432 H         1 UNK         0.0685 
     76 H76       -78.7282   26.9327  -69.6757 H         1 UNK         0.1434 
     77 H77       -75.0344   27.6713  -71.7224 H         1 UNK         0.1329 
     78 H78       -77.9035   30.8220  -71.2746 H         1 UNK         0.1335 
     79 H79       -75.6956   31.3300  -72.0666 H         1 UNK         0.0680 
     80 H80       -74.4152   30.1437  -71.9909 H         1 UNK         0.0680 
     81 H81       -75.5913   31.8225  -75.7109 H         1 UNK         0.1032 
     82 H82       -75.5359   32.4814  -74.1147 H         1 UNK         0.1032 
     83 H83       -73.4814   32.8528  -75.5378 H         1 UNK         0.0461 
     84 H84       -71.4550   30.7674  -73.7476 H         1 UNK         0.3453 
     85 H85       -71.3517   31.7916  -72.3376 H         1 UNK         0.3453 
     86 H86       -73.3926   29.9556  -75.6349 H         1 UNK         0.2984 
     87 H87       -71.8768   29.4743  -77.9625 H         1 UNK         0.0554 
     88 H88       -69.6583   30.5333  -78.2071 H         1 UNK         0.0847 
     89 H89       -69.4595   28.8162  -77.9025 H         1 UNK         0.0847 
     90 H90       -69.1724   29.9814  -76.6110 H         1 UNK         0.0847 
     91 H91       -72.0471   27.7317  -76.6255 H         1 UNK         0.3141 
     92 H92       -70.5721   26.6508  -73.6951 H         1 UNK         0.0743 
     93 H93       -73.4456   27.7128  -73.5738 H         1 UNK         0.0784 
     94 H94       -72.8224   26.3805  -72.6017 H         1 UNK         0.0784 
     95 H95       -72.1810   28.0029  -72.3909 H         1 UNK         0.0784 
     96 H96       -72.9519   25.8252  -75.1403 H         1 UNK         0.3213 
     97 H97       -71.2987   24.4448  -77.9050 H         1 UNK         0.0855 
     98 H98       -72.2177   22.6764  -75.5694 H         1 UNK         0.0814 
     99 H99       -70.6382   22.6059  -76.3374 H         1 UNK         0.0814 
    100 H100      -72.0697   22.1728  -77.2546 H         1 UNK         0.0814 
    101 H101      -73.9019   23.8892  -76.9472 H         1 UNK         0.3105 
    102 H102      -75.5170   26.9284  -77.4708 H         1 UNK         0.0547 
    103 H103      -75.3233   26.1790  -79.8566 H         1 UNK         0.0837 
    104 H104      -75.6709   24.5270  -79.3679 H         1 UNK         0.0837 
    105 H105      -76.8878   25.7892  -79.1722 H         1 UNK         0.0837 
    106 H106      -76.6161   24.3610  -77.0363 H         1 UNK         0.3020 
    107 H107      -75.7612   23.4408  -74.1553 H         1 UNK         0.1245 
    108 H108      -77.3240   25.8848  -73.2670 H         1 UNK         0.0781 
    109 H109      -77.8148   24.3217  -72.6678 H         1 UNK         0.0781 
    110 H110      -75.7464   25.6744  -69.5841 H         1 UNK         0.0836 
    111 H111      -77.3010   25.0900  -70.1200 H         1 UNK         0.0836 
    112 H112      -78.3893   24.1151  -75.3872 H         1 UNK         0.3022 
    113 H113      -78.5083   20.9093  -76.8656 H         1 UNK         0.0747 
    114 H114      -80.7029   20.5609  -75.7498 H         1 UNK         0.0793 
    115 H115      -79.3979   20.2393  -74.6215 H         1 UNK         0.0793 
    116 H116      -80.2917   21.7492  -74.5114 H         1 UNK         0.0793 
    117 H117      -80.5088   22.9161  -76.6912 H         1 UNK         0.3047 
    118 H118      -79.1564   25.4079  -78.6921 H         1 UNK         0.0822 
    119 H119      -80.9521   25.0367  -80.3561 H         1 UNK         0.0807 
    120 H120      -81.1912   23.3867  -79.7775 H         1 UNK         0.0807 
    121 H121      -79.6892   23.8384  -80.5718 H         1 UNK         0.0807 
    122 H122      -81.8362   25.1081  -78.0421 H         1 UNK         0.2946 
    123 H123      -82.4969   26.7630  -76.3207 H         1 UNK         0.1144 
    124 H124      -83.8836   25.1911  -74.9017 H         1 UNK         0.0793 
    125 H125      -82.5239   24.0775  -74.7991 H         1 UNK         0.0793 
    126 H126      -83.3103   24.3789  -76.3446 H         1 UNK         0.0793 
    127 H127      -80.7649   26.3082  -74.0314 H         1 UNK         0.2896 
@<TRIPOS>BOND
     1    1    2 1    
     2    1   67 1    
     3    1   68 1    
     4    1   69 1    
     5    2    3 2    
     6    2    4 am   BACKBONE|DICT|INTERRES
     7    4    5 1    
     8    4   70 1    
     9    5    6 1    
    10    5   65 1    
    11    5   71 1    
    12    6    7 1    
    13    6   72 1    
    14    6   73 1    
    15    7    8 1    
    16    8    9 1    
    17    8   74 1    
    18    8   75 1    
    19    9   10 ar   
    20    9   14 ar   
    21   10   11 ar   
    22   10   76 1    
    23   11   12 ar   
    24   11   48 1    
    25   12   13 ar   
    26   12   77 1    
    27   13   14 ar   
    28   13   15 1    
    29   14   78 1    
    30   15   16 1    
    31   15   79 1    
    32   15   80 1    
    33   16   17 1    
    34   17   18 1    
    35   17   81 1    
    36   17   82 1    
    37   18   19 1    
    38   18   22 1    
    39   18   83 1    
    40   19   20 am   BACKBONE|DICT|INTERRES
    41   19   21 2    
    42   20   84 1    
    43   20   85 1    
    44   22   23 am   BACKBONE|DICT|INTERRES
    45   22   86 1    
    46   23   24 2    
    47   23   25 1    
    48   25   26 1    
    49   25   27 1    
    50   25   87 1    
    51   26   88 1    
    52   26   89 1    
    53   26   90 1    
    54   27   28 am   BACKBONE|DICT|INTERRES
    55   27   91 1    
    56   28   29 2    
    57   28   30 1    
    58   30   31 1    
    59   30   32 1    
    60   30   92 1    
    61   31   93 1    
    62   31   94 1    
    63   31   95 1    
    64   32   33 am   BACKBONE|DICT|INTERRES
    65   32   96 1    
    66   33   34 2    
    67   33   35 1    
    68   35   36 1    
    69   35   37 1    
    70   35   97 1    
    71   36   98 1    
    72   36   99 1    
    73   36  100 1    
    74   37   38 am   BACKBONE|DICT|INTERRES
    75   37  101 1    
    76   38   39 2    
    77   38   40 1    
    78   40   41 1    
    79   40   42 1    
    80   40  102 1    
    81   41  103 1    
    82   41  104 1    
    83   41  105 1    
    84   42   43 am   BACKBONE|DICT|INTERRES
    85   42  106 1    
    86   43   44 2    
    87   43   45 1    
    88   45   46 1    
    89   45   49 1    
    90   45  107 1    
    91   46   47 1    
    92   46  108 1    
    93   46  109 1    
    94   47   48 1    
    95   48  110 1    
    96   48  111 1    
    97   49   50 am   BACKBONE|DICT|INTERRES
    98   49  112 1    
    99   50   51 2    
   100   50   52 1    
   101   52   53 1    
   102   52   54 1    
   103   52  113 1    
   104   53  114 1    
   105   53  115 1    
   106   53  116 1    
   107   54   55 am   BACKBONE|DICT|INTERRES
   108   54  117 1    
   109   55   56 2    
   110   55   57 1    
   111   57   58 1    
   112   57   59 1    
   113   57  118 1    
   114   58  119 1    
   115   58  120 1    
   116   58  121 1    
   117   59   60 am   BACKBONE|DICT|INTERRES
   118   59  122 1    
   119   60   61 2    
   120   60   62 1    
   121   62   63 1    
   122   62   64 1    
   123   62  123 1    
   124   63  124 1    
   125   63  125 1    
   126   63  126 1    
   127   64   65 am   BACKBONE|DICT|INTERRES
   128   64  127 1    
   129   65   66 2    
@<TRIPOS>SUBSTRUCTURE
     1 UNK         1 GROUP             0       ****    0 ROOT    
