@<TRIPOS>MOLECULE
3R135
127   129    1
SMALL
USER_CHARGES


@<TRIPOS>ATOM
      1 CA        -81.7667   28.0847  -78.7266 C.3       0 UNK        -0.1998 
      2 C         -81.4099   27.5104  -77.3637 C.2       0 UNK         0.4909 
      3 O         -80.7497   26.4750  -77.2935 O.2       0 UNK        -0.5240 
      4 N         -81.8343   28.1835  -76.2867 N.am      1 UNK        -0.4739 
      5 CA        -81.6148   27.7949  -74.8876 C.3       1 UNK         0.0864 
      6 C6        -82.0999   28.9018  -73.9192 C.3       11 UNK        -0.0881 
      7 S7        -81.1391   30.4445  -74.0854 S.3       11 UNK        -0.2682 
      8 C8        -80.4280   30.6304  -72.4182 C.3       11 UNK         0.0289 
      9 C9        -79.1603   29.8071  -72.2371 C.ar      11 UNK        -0.0687 
     10 C10       -79.2237   28.4907  -71.7655 C.ar      11 UNK        -0.0823 
     11 C11       -78.0529   27.7499  -71.5720 C.ar      11 UNK        -0.0830 
     12 C12       -76.8202   28.3433  -71.8454 C.ar      11 UNK        -0.1021 
     13 C13       -76.7364   29.6538  -72.3177 C.ar      11 UNK        -0.0753 
     14 C14       -77.9143   30.3806  -72.5139 C.ar      11 UNK        -0.0933 
     15 C15       -75.3830   30.2692  -72.6543 C.3       11 UNK         0.0166 
     16 S16       -74.3458   30.5778  -71.1863 S.3       11 UNK        -0.2615 
     17 C17       -73.3350   29.0551  -71.0673 C.3       11 UNK        -0.0865 
     18 CA        -71.9862   29.1633  -71.8220 C.3       10 UNK         0.0862 
     19 C         -71.0813   27.9454  -71.5103 C.2       10 UNK         0.5551 
     20 N         -70.0598   28.1244  -70.6847 N.am      10 UNK        -0.7319 
     21 O         -71.3223   26.8333  -71.9759 O.2       10 UNK        -0.5018 
     22 N         -72.2028   29.2527  -73.2688 N.am      10 UNK        -0.4509 
     23 C         -71.5945   30.1174  -74.0867 C.2       10 UNK         0.4899 
     24 O         -70.7793   30.9631  -73.7136 O.2       10 UNK        -0.4839 
     25 CA        -71.9813   30.0205  -75.5739 C.3       9 UNK         0.0222 
     26 CB        -71.1049   30.8989  -76.4922 C.3       9 UNK        -0.1966 
     27 N         -72.0270   28.6369  -76.0570 N.am      9 UNK        -0.4218 
     28 C         -71.0176   27.7527  -76.1137 C.2       9 UNK         0.5020 
     29 O         -69.8624   28.0048  -75.7680 O.2       9 UNK        -0.5274 
     30 CA        -71.3376   26.3384  -76.6399 C.3       8 UNK         0.0270 
     31 CB        -71.2543   25.3136  -75.4960 C.3       8 UNK        -0.1976 
     32 N         -72.6519   26.2251  -77.2773 N.am      8 UNK        -0.4313 
     33 C         -72.9983   26.7569  -78.4571 C.2       8 UNK         0.5041 
     34 O         -72.2120   27.3346  -79.2080 O.2       8 UNK        -0.5577 
     35 CA        -74.4887   26.6765  -78.8325 C.3       7 UNK         0.0284 
     36 CB        -74.8075   25.3498  -79.5412 C.3       7 UNK        -0.1958 
     37 N         -75.3679   26.8477  -77.6690 N.am      7 UNK        -0.4454 
     38 C         -75.5007   27.9913  -76.9810 C.2       7 UNK         0.5089 
     39 O         -74.9223   29.0361  -77.2766 O.2       7 UNK        -0.5125 
     40 CA        -76.3853   27.9577  -75.7259 C.3       6 UNK         0.0408 
     41 CB        -77.8565   28.2110  -76.0730 C.3       6 UNK        -0.1791 
     42 N         -76.2596   26.7045  -74.9813 N.am      6 UNK        -0.4762 
     43 C         -75.1989   26.3780  -74.2269 C.2       6 UNK         0.5007 
     44 O         -74.2303   27.1209  -74.0523 O.2       6 UNK        -0.5032 
     45 CA        -75.1988   24.9620  -73.6056 C.3       5 UNK         0.0783 
     46 C46       -75.9190   24.9158  -72.2304 C.3       11 UNK        -0.0857 
     47 S47       -77.7474   25.0788  -72.3155 S.3       11 UNK        -0.2512 
     48 C48       -78.1089   26.3254  -71.0341 C.3       11 UNK         0.0225 
     49 N         -75.7377   23.9429  -74.5106 N.am      5 UNK        -0.4615 
     50 C         -75.3357   23.6929  -75.7624 C.2       4 UNK         0.5053 
     51 O         -74.3468   24.2197  -76.2679 O.2       4 UNK        -0.5105 
     52 CA        -76.1918   22.7379  -76.6210 C.3       4 UNK         0.0263 
     53 CB        -75.3797   21.4916  -77.0090 C.3       4 UNK        -0.1981 
     54 N         -77.4614   22.3122  -76.0159 N.am      4 UNK        -0.4224 
     55 C         -78.4762   23.1096  -75.6512 C.2       3 UNK         0.4895 
     56 O         -78.4620   24.3363  -75.7892 O.2       3 UNK        -0.5091 
     57 CA        -79.6677   22.4256  -74.9606 C.3       3 UNK         0.0250 
     58 CB        -79.2112   21.3575  -73.9371 C.3       3 UNK        -0.1996 
     59 N         -80.4632   23.4536  -74.2960 N.am      3 UNK        -0.4254 
     60 C         -81.6799   23.3017  -73.7605 C.2       2 UNK         0.5004 
     61 O         -82.3350   22.2606  -73.8242 O.2       2 UNK        -0.5226 
     62 CA        -82.2608   24.5062  -73.0032 C.3       2 UNK         0.0269 
     63 CB        -81.9359   24.3944  -71.5041 C.3       2 UNK        -0.1926 
     64 N         -81.7521   25.7851  -73.5042 N.am      2 UNK        -0.4687 
     65 C         -82.2888   26.4526  -74.5338 C.2       1 UNK         0.5165 
     66 O         -83.2928   26.0761  -75.1450 O.2       1 UNK        -0.5079 
     67 H67       -82.3615   27.3673  -79.2912 H         1 UNK         0.0900 
     68 H68       -82.3385   29.0089  -78.6434 H         1 UNK         0.0900 
     69 H69       -80.8600   28.2968  -79.2927 H         1 UNK         0.0900 
     70 H70       -82.3736   29.0273  -76.4155 H         1 UNK         0.2959 
     71 H71       -80.5415   27.6561  -74.7530 H         1 UNK         0.1079 
     72 H72       -83.1511   29.1334  -74.1027 H         1 UNK         0.0837 
     73 H73       -82.0540   28.5636  -72.8832 H         1 UNK         0.0837 
     74 H74       -80.2028   31.6859  -72.2579 H         1 UNK         0.0685 
     75 H75       -81.1680   30.3687  -71.6604 H         1 UNK         0.0685 
     76 H76       -80.1824   28.0498  -71.5326 H         1 UNK         0.1434 
     77 H77       -75.9211   27.7754  -71.6949 H         1 UNK         0.1329 
     78 H78       -77.8640   31.3961  -72.8823 H         1 UNK         0.1335 
     79 H79       -74.8535   29.6242  -73.3521 H         1 UNK         0.0680 
     80 H80       -75.5215   31.2179  -73.1748 H         1 UNK         0.0680 
     81 H81       -73.1571   28.8745  -70.0054 H         1 UNK         0.1032 
     82 H82       -73.8881   28.1897  -71.4252 H         1 UNK         0.1032 
     83 H83       -71.4819   30.0645  -71.4668 H         1 UNK         0.0461 
     84 H84       -69.4697   27.3390  -70.4587 H         1 UNK         0.3453 
     85 H85       -69.8598   29.0308  -70.2908 H         1 UNK         0.3453 
     86 H86       -72.8114   28.5402  -73.6603 H         1 UNK         0.2984 
     87 H87       -73.0033   30.3959  -75.6433 H         1 UNK         0.0554 
     88 H88       -71.1740   31.9498  -76.2088 H         1 UNK         0.0847 
     89 H89       -71.4219   30.8232  -77.5324 H         1 UNK         0.0847 
     90 H90       -70.0526   30.6181  -76.4404 H         1 UNK         0.0847 
     91 H91       -72.9368   28.3244  -76.3704 H         1 UNK         0.3141 
     92 H92       -70.5787   26.0877  -77.3837 H         1 UNK         0.0743 
     93 H93       -71.9844   25.5257  -74.7138 H         1 UNK         0.0784 
     94 H94       -71.4320   24.2997  -75.8552 H         1 UNK         0.0784 
     95 H95       -70.2682   25.3252  -75.0298 H         1 UNK         0.0784 
     96 H96       -73.3489   25.6717  -76.7807 H         1 UNK         0.3213 
     97 H97       -74.6972   27.4911  -79.5298 H         1 UNK         0.0855 
     98 H98       -74.5909   24.4866  -78.9119 H         1 UNK         0.0814 
     99 H99       -74.2107   25.2442  -80.4482 H         1 UNK         0.0814 
    100 H100      -75.8554   25.2975  -79.8368 H         1 UNK         0.0814 
    101 H101      -75.8506   26.0282  -77.3316 H         1 UNK         0.3105 
    102 H102      -76.0610   28.7759  -75.0835 H         1 UNK         0.0547 
    103 H103      -77.9695   29.0977  -76.6982 H         1 UNK         0.0837 
    104 H104      -78.2967   27.3697  -76.6087 H         1 UNK         0.0837 
    105 H105      -78.4361   28.3835  -75.1672 H         1 UNK         0.0837 
    106 H106      -77.0138   26.0330  -75.0692 H         1 UNK         0.3020 
    107 H107      -74.1494   24.7076  -73.4401 H         1 UNK         0.1245 
    108 H108      -75.4936   25.6518  -71.5491 H         1 UNK         0.0781 
    109 H109      -75.7110   23.9544  -71.7583 H         1 UNK         0.0781 
    110 H110      -77.4167   26.2144  -70.1982 H         1 UNK         0.0836 
    111 H111      -79.0994   26.1195  -70.6263 H         1 UNK         0.0836 
    112 H112      -76.5767   23.4849  -74.1884 H         1 UNK         0.3022 
    113 H113      -76.4383   23.2804  -77.5357 H         1 UNK         0.0747 
    114 H114      -75.9323   20.8555  -77.7007 H         1 UNK         0.0793 
    115 H115      -74.4480   21.7687  -77.5049 H         1 UNK         0.0793 
    116 H116      -75.1176   20.8932  -76.1355 H         1 UNK         0.0793 
    117 H117      -77.5570   21.3211  -75.8471 H         1 UNK         0.3047 
    118 H118      -80.2788   21.9571  -75.7344 H         1 UNK         0.0822 
    119 H119      -78.6804   20.5351  -74.4171 H         1 UNK         0.0807 
    120 H120      -80.0567   20.9088  -73.4162 H         1 UNK         0.0807 
    121 H121      -78.5501   21.7838  -73.1811 H         1 UNK         0.0807 
    122 H122      -80.0179   24.3625  -74.2733 H         1 UNK         0.2946 
    123 H123      -83.3471   24.4761  -73.1191 H         1 UNK         0.1144 
    124 H124      -82.3715   25.2190  -70.9397 H         1 UNK         0.0793 
    125 H125      -80.8605   24.3909  -71.3217 H         1 UNK         0.0793 
    126 H126      -82.3382   23.4699  -71.0873 H         1 UNK         0.0793 
    127 H127      -80.9343   26.1572  -73.0439 H         1 UNK         0.2896 
@<TRIPOS>BOND
     1    1    2 1    
     2    1   67 1    
     3    1   68 1    
     4    1   69 1    
     5    2    3 2    
     6    2    4 am   BACKBONE|DICT|INTERRES
     7    4    5 1    
     8    4   70 1    
     9    5    6 1    
    10    5   65 1    
    11    5   71 1    
    12    6    7 1    
    13    6   72 1    
    14    6   73 1    
    15    7    8 1    
    16    8    9 1    
    17    8   74 1    
    18    8   75 1    
    19    9   10 ar   
    20    9   14 ar   
    21   10   11 ar   
    22   10   76 1    
    23   11   12 ar   
    24   11   48 1    
    25   12   13 ar   
    26   12   77 1    
    27   13   14 ar   
    28   13   15 1    
    29   14   78 1    
    30   15   16 1    
    31   15   79 1    
    32   15   80 1    
    33   16   17 1    
    34   17   18 1    
    35   17   81 1    
    36   17   82 1    
    37   18   19 1    
    38   18   22 1    
    39   18   83 1    
    40   19   20 am   BACKBONE|DICT|INTERRES
    41   19   21 2    
    42   20   84 1    
    43   20   85 1    
    44   22   23 am   BACKBONE|DICT|INTERRES
    45   22   86 1    
    46   23   24 2    
    47   23   25 1    
    48   25   26 1    
    49   25   27 1    
    50   25   87 1    
    51   26   88 1    
    52   26   89 1    
    53   26   90 1    
    54   27   28 am   BACKBONE|DICT|INTERRES
    55   27   91 1    
    56   28   29 2    
    57   28   30 1    
    58   30   31 1    
    59   30   32 1    
    60   30   92 1    
    61   31   93 1    
    62   31   94 1    
    63   31   95 1    
    64   32   33 am   BACKBONE|DICT|INTERRES
    65   32   96 1    
    66   33   34 2    
    67   33   35 1    
    68   35   36 1    
    69   35   37 1    
    70   35   97 1    
    71   36   98 1    
    72   36   99 1    
    73   36  100 1    
    74   37   38 am   BACKBONE|DICT|INTERRES
    75   37  101 1    
    76   38   39 2    
    77   38   40 1    
    78   40   41 1    
    79   40   42 1    
    80   40  102 1    
    81   41  103 1    
    82   41  104 1    
    83   41  105 1    
    84   42   43 am   BACKBONE|DICT|INTERRES
    85   42  106 1    
    86   43   44 2    
    87   43   45 1    
    88   45   46 1    
    89   45   49 1    
    90   45  107 1    
    91   46   47 1    
    92   46  108 1    
    93   46  109 1    
    94   47   48 1    
    95   48  110 1    
    96   48  111 1    
    97   49   50 am   BACKBONE|DICT|INTERRES
    98   49  112 1    
    99   50   51 2    
   100   50   52 1    
   101   52   53 1    
   102   52   54 1    
   103   52  113 1    
   104   53  114 1    
   105   53  115 1    
   106   53  116 1    
   107   54   55 am   BACKBONE|DICT|INTERRES
   108   54  117 1    
   109   55   56 2    
   110   55   57 1    
   111   57   58 1    
   112   57   59 1    
   113   57  118 1    
   114   58  119 1    
   115   58  120 1    
   116   58  121 1    
   117   59   60 am   BACKBONE|DICT|INTERRES
   118   59  122 1    
   119   60   61 2    
   120   60   62 1    
   121   62   63 1    
   122   62   64 1    
   123   62  123 1    
   124   63  124 1    
   125   63  125 1    
   126   63  126 1    
   127   64   65 am   BACKBONE|DICT|INTERRES
   128   64  127 1    
   129   65   66 2    
@<TRIPOS>SUBSTRUCTURE
     1 UNK         1 GROUP             0       ****    0 ROOT    
