@<TRIPOS>MOLECULE
3R135
127   129    1
SMALL
USER_CHARGES


@<TRIPOS>ATOM
      1 CA        -84.5243   25.8841  -71.1537 C.3       0 UNK        -0.1998 
      2 C         -83.1797   26.5864  -71.2704 C.2       0 UNK         0.4909 
      3 O         -83.0443   27.7254  -70.8228 O.2       0 UNK        -0.5240 
      4 N         -82.1883   25.9163  -71.8698 N.am      1 UNK        -0.4739 
      5 CA        -80.8248   26.4253  -72.0616 C.3       1 UNK         0.0864 
      6 C6        -79.8879   25.9594  -70.9129 C.3       11 UNK        -0.0881 
      7 S7        -78.3136   26.8685  -70.7408 S.3       11 UNK        -0.2682 
      8 C8        -78.8245   28.5729  -70.3582 C.3       11 UNK         0.0289 
      9 C9        -78.1432   29.5486  -71.3071 C.ar      11 UNK        -0.0687 
     10 C10       -78.6960   29.8206  -72.5626 C.ar      11 UNK        -0.0823 
     11 C11       -78.0560   30.6948  -73.4472 C.ar      11 UNK        -0.0830 
     12 C12       -76.8552   31.3010  -73.0651 C.ar      11 UNK        -0.1021 
     13 C13       -76.2903   31.0351  -71.8140 C.ar      11 UNK        -0.0753 
     14 C14       -76.9454   30.1667  -70.9364 C.ar      11 UNK        -0.0933 
     15 C15       -74.9798   31.6966  -71.4127 C.3       11 UNK         0.0166 
     16 S16       -73.5487   30.8649  -72.1779 S.3       11 UNK        -0.2615 
     17 C17       -72.6754   30.1198  -70.7528 C.3       11 UNK        -0.0865 
     18 CA        -72.7902   28.5745  -70.6003 C.3       10 UNK         0.0862 
     19 C         -74.1820   28.1202  -70.0670 C.2       10 UNK         0.5551 
     20 N         -74.9360   27.2960  -70.7748 N.am      10 UNK        -0.7319 
     21 O         -74.5600   28.4971  -68.9602 O.2       10 UNK        -0.5018 
     22 N         -72.1681   27.8154  -71.7077 N.am      10 UNK        -0.4509 
     23 C         -72.6571   27.4928  -72.9124 C.2       10 UNK         0.4899 
     24 O         -73.7951   27.7534  -73.3051 O.2       10 UNK        -0.4839 
     25 CA        -71.7153   26.6777  -73.8087 C.3       9 UNK         0.0222 
     26 CB        -71.8539   25.1745  -73.5144 C.3       9 UNK        -0.1966 
     27 N         -72.0493   26.9123  -75.2102 N.am      9 UNK        -0.4218 
     28 C         -71.3794   27.7225  -76.0391 C.2       9 UNK         0.5020 
     29 O         -70.3456   28.3168  -75.7246 O.2       9 UNK        -0.5274 
     30 CA        -71.9694   27.9145  -77.4514 C.3       8 UNK         0.0270 
     31 CB        -70.9287   28.3965  -78.4853 C.3       8 UNK        -0.1976 
     32 N         -72.6988   26.7390  -77.9411 N.am      8 UNK        -0.4313 
     33 C         -72.2126   25.5122  -78.1926 C.2       8 UNK         0.5041 
     34 O         -71.0192   25.2184  -78.1084 O.2       8 UNK        -0.5577 
     35 CA        -73.2180   24.4112  -78.5883 C.3       7 UNK         0.0284 
     36 CB        -73.1672   23.2383  -77.5926 C.3       7 UNK        -0.1958 
     37 N         -74.5951   24.9037  -78.6652 N.am      7 UNK        -0.4454 
     38 C         -75.1533   25.4565  -79.7499 C.2       7 UNK         0.5089 
     39 O         -74.5905   25.5398  -80.8416 O.2       7 UNK        -0.5125 
     40 CA        -76.5694   26.0400  -79.5875 C.3       6 UNK         0.0408 
     41 CB        -77.6189   25.0183  -80.0519 C.3       6 UNK        -0.1791 
     42 N         -76.8835   26.4719  -78.2202 N.am      6 UNK        -0.4762 
     43 C         -76.2643   27.4661  -77.5639 C.2       6 UNK         0.5007 
     44 O         -75.3523   28.1339  -78.0518 O.2       6 UNK        -0.5032 
     45 CA        -76.6762   27.6972  -76.0936 C.3       5 UNK         0.0783 
     46 C46       -77.9907   28.5100  -75.9888 C.3       11 UNK        -0.0857 
     47 S47       -77.7106   30.3010  -76.1880 S.3       11 UNK        -0.2512 
     48 C48       -78.6706   31.0032  -74.8065 C.3       11 UNK         0.0225 
     49 N         -76.7519   26.4442  -75.3368 N.am      5 UNK        -0.4615 
     50 C         -75.7447   25.5739  -75.1780 C.2       4 UNK         0.5053 
     51 O         -74.6262   25.7192  -75.6699 O.2       4 UNK        -0.5105 
     52 CA        -76.0506   24.3023  -74.3772 C.3       4 UNK         0.0263 
     53 CB        -75.9719   24.5742  -72.8685 C.3       4 UNK        -0.1981 
     54 N         -77.3733   23.7790  -74.7179 N.am      4 UNK        -0.4224 
     55 C         -77.6230   23.0179  -75.7924 C.2       3 UNK         0.4895 
     56 O         -76.7524   22.6097  -76.5617 O.2       3 UNK        -0.5091 
     57 CA        -79.0956   22.6654  -76.0702 C.3       3 UNK         0.0250 
     58 CB        -79.5041   21.4027  -75.2945 C.3       3 UNK        -0.1996 
     59 N         -80.0285   23.7531  -75.7593 N.am      3 UNK        -0.4254 
     60 C         -80.0457   24.9377  -76.3860 C.2       2 UNK         0.5004 
     61 O         -79.2777   25.2433  -77.2965 O.2       2 UNK        -0.5226 
     62 CA        -81.0656   25.9779  -75.8956 C.3       2 UNK         0.0269 
     63 CB        -82.4176   25.7697  -76.5965 C.3       2 UNK        -0.1926 
     64 N         -81.2758   26.0347  -74.4428 N.am      2 UNK        -0.4687 
     65 C         -80.3287   26.1262  -73.4942 C.2       1 UNK         0.5165 
     66 O         -79.1262   26.0048  -73.7294 O.2       1 UNK        -0.5079 
     67 H67       -85.2946   26.4613  -71.6644 H         1 UNK         0.0900 
     68 H68       -84.8078   25.7899  -70.1057 H         1 UNK         0.0900 
     69 H69       -84.5035   24.8855  -71.5899 H         1 UNK         0.0900 
     70 H70       -82.3541   24.9769  -72.2062 H         1 UNK         0.2959 
     71 H71       -80.8714   27.5133  -72.0374 H         1 UNK         0.1079 
     72 H72       -80.4062   26.0497  -69.9569 H         1 UNK         0.0837 
     73 H73       -79.6587   24.8982  -71.0234 H         1 UNK         0.0837 
     74 H74       -79.9072   28.6879  -70.4073 H         1 UNK         0.0685 
     75 H75       -78.5489   28.7955  -69.3263 H         1 UNK         0.0685 
     76 H76       -79.6217   29.3464  -72.8542 H         1 UNK         0.1434 
     77 H77       -76.3536   31.9737  -73.7476 H         1 UNK         0.1329 
     78 H78       -76.5153   29.9588  -69.9670 H         1 UNK         0.1335 
     79 H79       -74.9890   32.7386  -71.7357 H         1 UNK         0.0680 
     80 H80       -74.8830   31.7215  -70.3268 H         1 UNK         0.0680 
     81 H81       -72.9811   30.6135  -69.8290 H         1 UNK         0.1032 
     82 H82       -71.6215   30.3784  -70.8635 H         1 UNK         0.1032 
     83 H83       -72.1315   28.3278  -69.7663 H         1 UNK         0.0461 
     84 H84       -74.6781   27.1348  -71.7413 H         1 UNK         0.3453 
     85 H85       -75.8455   27.0253  -70.4340 H         1 UNK         0.3453 
     86 H86       -71.2339   27.4926  -71.5007 H         1 UNK         0.2984 
     87 H87       -70.6850   26.9776  -73.6064 H         1 UNK         0.0554 
     88 H88       -71.6315   24.9534  -72.4698 H         1 UNK         0.0847 
     89 H89       -71.1643   24.5899  -74.1236 H         1 UNK         0.0847 
     90 H90       -72.8617   24.8129  -73.7184 H         1 UNK         0.0847 
     91 H91       -72.9405   26.5230  -75.5140 H         1 UNK         0.3141 
     92 H92       -72.7154   28.7040  -77.3511 H         1 UNK         0.0743 
     93 H93       -70.5008   29.3557  -78.1913 H         1 UNK         0.0784 
     94 H94       -70.1032   27.6918  -78.5887 H         1 UNK         0.0784 
     95 H95       -71.3800   28.5326  -79.4681 H         1 UNK         0.0784 
     96 H96       -73.6999   26.8770  -78.0309 H         1 UNK         0.3213 
     97 H97       -72.9154   24.0347  -79.5678 H         1 UNK         0.0855 
     98 H98       -72.1754   22.7850  -77.5734 H         1 UNK         0.0814 
     99 H99       -73.8756   22.4552  -77.8638 H         1 UNK         0.0814 
    100 H100      -73.3961   23.5578  -76.5759 H         1 UNK         0.0814 
    101 H101      -75.1194   24.9039  -77.7995 H         1 UNK         0.3105 
    102 H102      -76.6378   26.9168  -80.2345 H         1 UNK         0.0547 
    103 H103      -77.4209   24.6872  -81.0722 H         1 UNK         0.0837 
    104 H104      -77.6265   24.1325  -79.4149 H         1 UNK         0.0837 
    105 H105      -78.6213   25.4465  -80.0399 H         1 UNK         0.0837 
    106 H106      -77.6494   25.9813  -77.7594 H         1 UNK         0.3020 
    107 H107      -75.8751   28.2723  -75.6214 H         1 UNK         0.1245 
    108 H108      -78.4509   28.3431  -75.0149 H         1 UNK         0.0781 
    109 H109      -78.7274   28.1809  -76.7233 H         1 UNK         0.0781 
    110 H110      -79.6987   30.6419  -74.8633 H         1 UNK         0.0836 
    111 H111      -78.7238   32.0855  -74.9330 H         1 UNK         0.0836 
    112 H112      -77.6283   26.2565  -74.8573 H         1 UNK         0.3022 
    113 H113      -75.2930   23.5555  -74.6253 H         1 UNK         0.0747 
    114 H114      -76.6927   25.3307  -72.5615 H         1 UNK         0.0793 
    115 H115      -76.1656   23.6712  -72.2898 H         1 UNK         0.0793 
    116 H116      -74.9831   24.9359  -72.5864 H         1 UNK         0.0793 
    117 H117      -78.1538   24.1408  -74.1834 H         1 UNK         0.3047 
    118 H118      -79.1822   22.4524  -77.1381 H         1 UNK         0.0822 
    119 H119      -80.5143   21.0861  -75.5546 H         1 UNK         0.0807 
    120 H120      -79.4674   21.5601  -74.2158 H         1 UNK         0.0807 
    121 H121      -78.8367   20.5710  -75.5253 H         1 UNK         0.0807 
    122 H122      -80.6927   23.5945  -75.0159 H         1 UNK         0.2946 
    123 H123      -80.6843   26.9554  -76.1946 H         1 UNK         0.1144 
    124 H124      -83.1108   26.5810  -76.3735 H         1 UNK         0.0793 
    125 H125      -82.8885   24.8327  -76.2965 H         1 UNK         0.0793 
    126 H126      -82.2962   25.7412  -77.6805 H         1 UNK         0.0793 
    127 H127      -82.2336   26.1506  -74.1438 H         1 UNK         0.2896 
@<TRIPOS>BOND
     1    1    2 1    
     2    1   67 1    
     3    1   68 1    
     4    1   69 1    
     5    2    3 2    
     6    2    4 am   BACKBONE|DICT|INTERRES
     7    4    5 1    
     8    4   70 1    
     9    5    6 1    
    10    5   65 1    
    11    5   71 1    
    12    6    7 1    
    13    6   72 1    
    14    6   73 1    
    15    7    8 1    
    16    8    9 1    
    17    8   74 1    
    18    8   75 1    
    19    9   10 ar   
    20    9   14 ar   
    21   10   11 ar   
    22   10   76 1    
    23   11   12 ar   
    24   11   48 1    
    25   12   13 ar   
    26   12   77 1    
    27   13   14 ar   
    28   13   15 1    
    29   14   78 1    
    30   15   16 1    
    31   15   79 1    
    32   15   80 1    
    33   16   17 1    
    34   17   18 1    
    35   17   81 1    
    36   17   82 1    
    37   18   19 1    
    38   18   22 1    
    39   18   83 1    
    40   19   20 am   BACKBONE|DICT|INTERRES
    41   19   21 2    
    42   20   84 1    
    43   20   85 1    
    44   22   23 am   BACKBONE|DICT|INTERRES
    45   22   86 1    
    46   23   24 2    
    47   23   25 1    
    48   25   26 1    
    49   25   27 1    
    50   25   87 1    
    51   26   88 1    
    52   26   89 1    
    53   26   90 1    
    54   27   28 am   BACKBONE|DICT|INTERRES
    55   27   91 1    
    56   28   29 2    
    57   28   30 1    
    58   30   31 1    
    59   30   32 1    
    60   30   92 1    
    61   31   93 1    
    62   31   94 1    
    63   31   95 1    
    64   32   33 am   BACKBONE|DICT|INTERRES
    65   32   96 1    
    66   33   34 2    
    67   33   35 1    
    68   35   36 1    
    69   35   37 1    
    70   35   97 1    
    71   36   98 1    
    72   36   99 1    
    73   36  100 1    
    74   37   38 am   BACKBONE|DICT|INTERRES
    75   37  101 1    
    76   38   39 2    
    77   38   40 1    
    78   40   41 1    
    79   40   42 1    
    80   40  102 1    
    81   41  103 1    
    82   41  104 1    
    83   41  105 1    
    84   42   43 am   BACKBONE|DICT|INTERRES
    85   42  106 1    
    86   43   44 2    
    87   43   45 1    
    88   45   46 1    
    89   45   49 1    
    90   45  107 1    
    91   46   47 1    
    92   46  108 1    
    93   46  109 1    
    94   47   48 1    
    95   48  110 1    
    96   48  111 1    
    97   49   50 am   BACKBONE|DICT|INTERRES
    98   49  112 1    
    99   50   51 2    
   100   50   52 1    
   101   52   53 1    
   102   52   54 1    
   103   52  113 1    
   104   53  114 1    
   105   53  115 1    
   106   53  116 1    
   107   54   55 am   BACKBONE|DICT|INTERRES
   108   54  117 1    
   109   55   56 2    
   110   55   57 1    
   111   57   58 1    
   112   57   59 1    
   113   57  118 1    
   114   58  119 1    
   115   58  120 1    
   116   58  121 1    
   117   59   60 am   BACKBONE|DICT|INTERRES
   118   59  122 1    
   119   60   61 2    
   120   60   62 1    
   121   62   63 1    
   122   62   64 1    
   123   62  123 1    
   124   63  124 1    
   125   63  125 1    
   126   63  126 1    
   127   64   65 am   BACKBONE|DICT|INTERRES
   128   64  127 1    
   129   65   66 2    
@<TRIPOS>SUBSTRUCTURE
     1 UNK         1 GROUP             0       ****    0 ROOT    
