@<TRIPOS>MOLECULE
3R135
127   129    1
SMALL
USER_CHARGES


@<TRIPOS>ATOM
      1 CA        -85.9831   29.1185  -74.2130 C.3       0 UNK        -0.1998 
      2 C         -84.6429   28.4326  -73.9894 C.2       0 UNK         0.4909 
      3 O         -84.6048   27.3859  -73.3427 O.2       0 UNK        -0.5240 
      4 N         -83.5648   29.0254  -74.5261 N.am      1 UNK        -0.4739 
      5 CA        -82.1595   28.5902  -74.4782 C.3       1 UNK         0.0864 
      6 C6        -81.3847   29.0973  -73.2252 C.3       11 UNK        -0.0881 
      7 S7        -81.9052   28.4117  -71.6131 S.3       11 UNK        -0.2682 
      8 C8        -81.0022   29.4904  -70.4606 C.3       11 UNK         0.0289 
      9 C9        -79.4936   29.3876  -70.6383 C.ar      11 UNK        -0.0687 
     10 C10       -78.8130   28.2358  -70.2346 C.ar      11 UNK        -0.0823 
     11 C11       -77.4246   28.1492  -70.3690 C.ar      11 UNK        -0.0830 
     12 C12       -76.7188   29.2376  -70.8920 C.ar      11 UNK        -0.1021 
     13 C13       -77.3869   30.3880  -71.3324 C.ar      11 UNK        -0.0753 
     14 C14       -78.7772   30.4499  -71.1970 C.ar      11 UNK        -0.0933 
     15 C15       -76.6718   31.5868  -71.9633 C.3       11 UNK         0.0166 
     16 S16       -74.8461   31.5644  -71.9135 S.3       11 UNK        -0.2615 
     17 C17       -74.4551   30.3809  -73.2489 C.3       11 UNK        -0.0865 
     18 CA        -72.9436   30.0422  -73.3148 C.3       10 UNK         0.0862 
     19 C         -72.5017   29.0718  -72.1840 C.2       10 UNK         0.5551 
     20 N         -72.5129   27.7652  -72.4137 N.am      10 UNK        -0.7319 
     21 O         -72.1186   29.5086  -71.1017 O.2       10 UNK        -0.5018 
     22 N         -72.5822   29.5417  -74.6474 N.am      10 UNK        -0.4509 
     23 C         -71.4228   29.8022  -75.2628 C.2       10 UNK         0.4899 
     24 O         -70.5540   30.5514  -74.8120 O.2       10 UNK        -0.4839 
     25 CA        -71.2162   29.1058  -76.6177 C.3       9 UNK         0.0222 
     26 CB        -69.8667   29.4466  -77.2867 C.3       9 UNK        -0.1966 
     27 N         -71.4176   27.6564  -76.5264 N.am      9 UNK        -0.4218 
     28 C         -70.6859   26.7646  -75.8373 C.2       9 UNK         0.5020 
     29 O         -69.6941   27.0644  -75.1711 O.2       9 UNK        -0.5274 
     30 CA        -71.1114   25.2803  -75.8904 C.3       8 UNK         0.0270 
     31 CB        -71.4028   24.7398  -74.4796 C.3       8 UNK        -0.1976 
     32 N         -72.2695   25.0179  -76.7495 N.am      8 UNK        -0.4313 
     33 C         -72.2573   25.0298  -78.0893 C.2       8 UNK         0.5041 
     34 O         -71.2361   25.1686  -78.7630 O.2       8 UNK        -0.5577 
     35 CA        -73.6194   24.9258  -78.7972 C.3       7 UNK         0.0284 
     36 CB        -73.9724   23.4551  -79.0687 C.3       7 UNK        -0.1958 
     37 N         -74.7120   25.5763  -78.0607 N.am      7 UNK        -0.4454 
     38 C         -74.7740   26.8881  -77.7827 C.2       7 UNK         0.5089 
     39 O         -73.9200   27.6995  -78.1380 O.2       7 UNK        -0.5125 
     40 CA        -75.9469   27.3728  -76.9119 C.3       6 UNK         0.0408 
     41 CB        -77.2454   27.4613  -77.7280 C.3       6 UNK        -0.1791 
     42 N         -76.1553   26.5257  -75.7373 N.am      6 UNK        -0.4762 
     43 C         -75.2718   26.3704  -74.7395 C.2       6 UNK         0.5007 
     44 O         -74.2159   27.0026  -74.6580 O.2       6 UNK        -0.5032 
     45 CA        -75.5925   25.2764  -73.7002 C.3       5 UNK         0.0783 
     46 C46       -76.4608   25.7998  -72.5256 C.3       11 UNK        -0.0857 
     47 S47       -75.4325   26.3233  -71.1167 S.3       11 UNK        -0.2512 
     48 C48       -76.6912   26.8885  -69.9224 C.3       11 UNK         0.0225 
     49 N         -76.1853   24.0970  -74.3372 N.am      5 UNK        -0.4615 
     50 C         -75.5056   23.2391  -75.1099 C.2       4 UNK         0.5053 
     51 O         -74.3074   23.3520  -75.3644 O.2       4 UNK        -0.5105 
     52 CA        -76.3029   22.0772  -75.7247 C.3       4 UNK         0.0263 
     53 CB        -76.4393   20.9231  -74.7190 C.3       4 UNK        -0.1981 
     54 N         -77.6306   22.4845  -76.1905 N.am      4 UNK        -0.4224 
     55 C         -77.8430   23.3305  -77.2082 C.2       3 UNK         0.4895 
     56 O         -76.9447   23.8343  -77.8794 O.2       3 UNK        -0.5091 
     57 CA        -79.3004   23.7168  -77.5016 C.3       3 UNK         0.0250 
     58 CB        -79.9649   22.6687  -78.4083 C.3       3 UNK        -0.1996 
     59 N         -80.1165   23.9202  -76.3002 N.am      3 UNK        -0.4254 
     60 C         -79.8581   24.8200  -75.3411 C.2       2 UNK         0.5004 
     61 O         -78.8447   25.5227  -75.3047 O.2       2 UNK        -0.5226 
     62 CA        -80.8941   24.9409  -74.2150 C.3       2 UNK         0.0269 
     63 CB        -80.3452   24.3498  -72.9066 C.3       2 UNK        -0.1926 
     64 N         -81.2569   26.3392  -73.9932 N.am      2 UNK        -0.4687 
     65 C         -81.9568   27.0998  -74.8452 C.2       1 UNK         0.5165 
     66 O         -82.4236   26.6760  -75.9058 O.2       1 UNK        -0.5079 
     67 H67       -86.6613   28.4520  -74.7452 H         1 UNK         0.0900 
     68 H68       -85.8830   30.0349  -74.7945 H         1 UNK         0.0900 
     69 H69       -86.4373   29.3735  -73.2558 H         1 UNK         0.0900 
     70 H70       -83.7146   29.8684  -75.0627 H         1 UNK         0.2959 
     71 H71       -81.7013   29.1098  -75.3217 H         1 UNK         0.1079 
     72 H72       -81.4789   30.1830  -73.1698 H         1 UNK         0.0837 
     73 H73       -80.3163   28.9102  -73.3509 H         1 UNK         0.0837 
     74 H74       -81.2637   29.2118  -69.4389 H         1 UNK         0.0685 
     75 H75       -81.3417   30.5191  -70.5924 H         1 UNK         0.0685 
     76 H76       -79.3696   27.4095  -69.8134 H         1 UNK         0.1434 
     77 H77       -75.6438   29.1654  -70.9602 H         1 UNK         0.1329 
     78 H78       -79.3048   31.3360  -71.5232 H         1 UNK         0.1335 
     79 H79       -76.9951   31.6882  -73.0003 H         1 UNK         0.0680 
     80 H80       -77.0003   32.4919  -71.4504 H         1 UNK         0.0680 
     81 H81       -74.7686   30.8480  -74.1840 H         1 UNK         0.1032 
     82 H82       -75.0558   29.4742  -73.1587 H         1 UNK         0.1032 
     83 H83       -72.4020   30.9764  -73.1516 H         1 UNK         0.0461 
     84 H84       -72.9051   27.4110  -73.2780 H         1 UNK         0.3453 
     85 H85       -72.2250   27.1324  -71.6859 H         1 UNK         0.3453 
     86 H86       -73.2010   28.8421  -75.0400 H         1 UNK         0.2984 
     87 H87       -72.0030   29.4799  -77.2740 H         1 UNK         0.0554 
     88 H88       -69.7682   28.9532  -78.2536 H         1 UNK         0.0847 
     89 H89       -69.0173   29.1503  -76.6706 H         1 UNK         0.0847 
     90 H90       -69.7798   30.5198  -77.4603 H         1 UNK         0.0847 
     91 H91       -72.2272   27.3148  -77.0332 H         1 UNK         0.3141 
     92 H92       -70.2617   24.7246  -76.2923 H         1 UNK         0.0743 
     93 H93       -72.2473   25.2505  -74.0187 H         1 UNK         0.0784 
     94 H94       -71.6291   23.6736  -74.5027 H         1 UNK         0.0784 
     95 H95       -70.5436   24.8721  -73.8208 H         1 UNK         0.0784 
     96 H96       -73.1440   24.8078  -76.2790 H         1 UNK         0.3213 
     97 H97       -73.5257   25.4351  -79.7586 H         1 UNK         0.0855 
     98 H98       -74.1187   22.8983  -78.1428 H         1 UNK         0.0814 
     99 H99       -73.1776   22.9584  -79.6269 H         1 UNK         0.0814 
    100 H100      -74.8843   23.3687  -79.6596 H         1 UNK         0.0814 
    101 H101      -75.4894   24.9790  -77.7843 H         1 UNK         0.3105 
    102 H102      -75.7052   28.3763  -76.5552 H         1 UNK         0.0547 
    103 H103      -77.1239   28.1288  -78.5820 H         1 UNK         0.0837 
    104 H104      -77.5491   26.4889  -78.1151 H         1 UNK         0.0837 
    105 H105      -78.0663   27.8501  -77.1251 H         1 UNK         0.0837 
    106 H106      -77.0308   26.0086  -75.6934 H         1 UNK         0.3020 
    107 H107      -74.6314   24.9477  -73.2972 H         1 UNK         0.1245 
    108 H108      -77.1235   26.6125  -72.8319 H         1 UNK         0.0781 
    109 H109      -77.1120   25.0087  -72.1517 H         1 UNK         0.0781 
    110 H110      -77.3929   26.0729  -69.7404 H         1 UNK         0.0836 
    111 H111      -76.2011   27.0925  -68.9697 H         1 UNK         0.0836 
    112 H112      -77.1818   23.9770  -74.2327 H         1 UNK         0.3022 
    113 H113      -75.7419   21.7116  -76.5874 H         1 UNK         0.0747 
    114 H114      -76.9292   20.0599  -75.1701 H         1 UNK         0.0793 
    115 H115      -75.4594   20.5921  -74.3717 H         1 UNK         0.0793 
    116 H116      -77.0149   21.2153  -73.8397 H         1 UNK         0.0793 
    117 H117      -78.4291   22.1155  -75.6950 H         1 UNK         0.3047 
    118 H118      -79.2801   24.6659  -78.0412 H         1 UNK         0.0822 
    119 H119      -80.0567   21.7017  -77.9123 H         1 UNK         0.0807 
    120 H120      -79.3821   22.5144  -79.3177 H         1 UNK         0.0807 
    121 H121      -80.9618   22.9848  -78.7163 H         1 UNK         0.0807 
    122 H122      -80.9699   23.3828  -76.2440 H         1 UNK         0.2946 
    123 H123      -81.7981   24.3946  -74.4941 H         1 UNK         0.1144 
    124 H124      -81.0974   24.3723  -72.1177 H         1 UNK         0.0793 
    125 H125      -79.4743   24.9003  -72.5506 H         1 UNK         0.0793 
    126 H126      -80.0463   23.3091  -73.0388 H         1 UNK         0.0793 
    127 H127      -80.9306   26.7673  -73.1374 H         1 UNK         0.2896 
@<TRIPOS>BOND
     1    1    2 1    
     2    1   67 1    
     3    1   68 1    
     4    1   69 1    
     5    2    3 2    
     6    2    4 am   BACKBONE|DICT|INTERRES
     7    4    5 1    
     8    4   70 1    
     9    5    6 1    
    10    5   65 1    
    11    5   71 1    
    12    6    7 1    
    13    6   72 1    
    14    6   73 1    
    15    7    8 1    
    16    8    9 1    
    17    8   74 1    
    18    8   75 1    
    19    9   10 ar   
    20    9   14 ar   
    21   10   11 ar   
    22   10   76 1    
    23   11   12 ar   
    24   11   48 1    
    25   12   13 ar   
    26   12   77 1    
    27   13   14 ar   
    28   13   15 1    
    29   14   78 1    
    30   15   16 1    
    31   15   79 1    
    32   15   80 1    
    33   16   17 1    
    34   17   18 1    
    35   17   81 1    
    36   17   82 1    
    37   18   19 1    
    38   18   22 1    
    39   18   83 1    
    40   19   20 am   BACKBONE|DICT|INTERRES
    41   19   21 2    
    42   20   84 1    
    43   20   85 1    
    44   22   23 am   BACKBONE|DICT|INTERRES
    45   22   86 1    
    46   23   24 2    
    47   23   25 1    
    48   25   26 1    
    49   25   27 1    
    50   25   87 1    
    51   26   88 1    
    52   26   89 1    
    53   26   90 1    
    54   27   28 am   BACKBONE|DICT|INTERRES
    55   27   91 1    
    56   28   29 2    
    57   28   30 1    
    58   30   31 1    
    59   30   32 1    
    60   30   92 1    
    61   31   93 1    
    62   31   94 1    
    63   31   95 1    
    64   32   33 am   BACKBONE|DICT|INTERRES
    65   32   96 1    
    66   33   34 2    
    67   33   35 1    
    68   35   36 1    
    69   35   37 1    
    70   35   97 1    
    71   36   98 1    
    72   36   99 1    
    73   36  100 1    
    74   37   38 am   BACKBONE|DICT|INTERRES
    75   37  101 1    
    76   38   39 2    
    77   38   40 1    
    78   40   41 1    
    79   40   42 1    
    80   40  102 1    
    81   41  103 1    
    82   41  104 1    
    83   41  105 1    
    84   42   43 am   BACKBONE|DICT|INTERRES
    85   42  106 1    
    86   43   44 2    
    87   43   45 1    
    88   45   46 1    
    89   45   49 1    
    90   45  107 1    
    91   46   47 1    
    92   46  108 1    
    93   46  109 1    
    94   47   48 1    
    95   48  110 1    
    96   48  111 1    
    97   49   50 am   BACKBONE|DICT|INTERRES
    98   49  112 1    
    99   50   51 2    
   100   50   52 1    
   101   52   53 1    
   102   52   54 1    
   103   52  113 1    
   104   53  114 1    
   105   53  115 1    
   106   53  116 1    
   107   54   55 am   BACKBONE|DICT|INTERRES
   108   54  117 1    
   109   55   56 2    
   110   55   57 1    
   111   57   58 1    
   112   57   59 1    
   113   57  118 1    
   114   58  119 1    
   115   58  120 1    
   116   58  121 1    
   117   59   60 am   BACKBONE|DICT|INTERRES
   118   59  122 1    
   119   60   61 2    
   120   60   62 1    
   121   62   63 1    
   122   62   64 1    
   123   62  123 1    
   124   63  124 1    
   125   63  125 1    
   126   63  126 1    
   127   64   65 am   BACKBONE|DICT|INTERRES
   128   64  127 1    
   129   65   66 2    
@<TRIPOS>SUBSTRUCTURE
     1 UNK         1 GROUP             0       ****    0 ROOT    
