@<TRIPOS>MOLECULE
3R135
127   129    1
SMALL
USER_CHARGES


@<TRIPOS>ATOM
      1 CA        -78.6480   21.0435  -75.3693 C.3       0 UNK        -0.1998 
      2 C         -79.0696   21.4491  -73.9664 C.2       0 UNK         0.4909 
      3 O         -79.5359   20.6034  -73.2027 O.2       0 UNK        -0.5240 
      4 N         -78.9410   22.7368  -73.6227 N.am      1 UNK        -0.4739 
      5 CA        -79.3613   23.3143  -72.3397 C.3       1 UNK         0.0864 
      6 C6        -78.3732   24.3904  -71.8076 C.3       11 UNK        -0.0881 
      7 S7        -77.8278   25.6550  -73.0100 S.3       11 UNK        -0.2682 
      8 C8        -78.7150   27.1315  -72.4214 C.3       11 UNK         0.0289 
      9 C9        -78.1141   28.3877  -73.0269 C.ar      11 UNK        -0.0687 
     10 C10       -78.6101   28.9051  -74.2265 C.ar      11 UNK        -0.0823 
     11 C11       -77.9963   30.0084  -74.8313 C.ar      11 UNK        -0.0830 
     12 C12       -76.9194   30.6293  -74.1897 C.ar      11 UNK        -0.1021 
     13 C13       -76.4365   30.1393  -72.9733 C.ar      11 UNK        -0.0753 
     14 C14       -77.0358   29.0155  -72.3988 C.ar      11 UNK        -0.0933 
     15 C15       -75.2508   30.8039  -72.2921 C.3       11 UNK         0.0166 
     16 S16       -73.7008   30.3500  -73.1248 S.3       11 UNK        -0.2615 
     17 C17       -72.4707   30.5624  -71.7921 C.3       11 UNK        -0.0865 
     18 CA        -71.2349   31.3760  -72.2503 C.3       10 UNK         0.0862 
     19 C         -70.2628   31.6319  -71.0611 C.2       10 UNK         0.5551 
     20 N         -69.0232   31.1579  -71.0985 N.am      10 UNK        -0.7319 
     21 O         -70.6418   32.2794  -70.0882 O.2       10 UNK        -0.5018 
     22 N         -70.6062   30.7807  -73.4422 N.am      10 UNK        -0.4509 
     23 C         -69.8485   31.4564  -74.3146 C.2       10 UNK         0.4899 
     24 O         -69.5656   32.6492  -74.1954 O.2       10 UNK        -0.4839 
     25 CA        -69.3047   30.6847  -75.5297 C.3       9 UNK         0.0222 
     26 CB        -67.8258   30.3228  -75.3153 C.3       9 UNK        -0.1966 
     27 N         -70.0518   29.4669  -75.8551 N.am      9 UNK        -0.4218 
     28 C         -71.2981   29.4204  -76.3463 C.2       9 UNK         0.5020 
     29 O         -71.9927   30.4152  -76.5573 O.2       9 UNK        -0.5274 
     30 CA        -71.8435   28.0297  -76.7192 C.3       8 UNK         0.0270 
     31 CB        -70.7504   27.0664  -77.2341 C.3       8 UNK        -0.1976 
     32 N         -72.6261   27.3810  -75.6632 N.am      8 UNK        -0.4313 
     33 C         -72.2515   27.0905  -74.4058 C.2       8 UNK         0.5041 
     34 O         -71.2105   27.4984  -73.8869 O.2       8 UNK        -0.5577 
     35 CA        -73.1621   26.1396  -73.5940 C.3       7 UNK         0.0284 
     36 CB        -73.9322   26.8871  -72.4972 C.3       7 UNK        -0.1958 
     37 N         -74.1228   25.3966  -74.4132 N.am      7 UNK        -0.4454 
     38 C         -73.8084   24.4395  -75.2967 C.2       7 UNK         0.5089 
     39 O         -72.6737   23.9824  -75.4354 O.2       7 UNK        -0.5125 
     40 CA        -74.9416   23.9286  -76.2064 C.3       6 UNK         0.0408 
     41 CB        -75.4363   22.5560  -75.7284 C.3       6 UNK        -0.1791 
     42 N         -76.0861   24.8418  -76.3303 N.am      6 UNK        -0.4762 
     43 C         -76.0575   26.0813  -76.8392 C.2       6 UNK         0.5007 
     44 O         -75.0254   26.6092  -77.2575 O.2       6 UNK        -0.5032 
     45 CA        -77.3921   26.8608  -76.8568 C.3       5 UNK         0.0783 
     46 C46       -77.2377   28.2882  -77.4546 C.3       11 UNK        -0.0857 
     47 S47       -78.8004   29.2382  -77.4198 S.3       11 UNK        -0.2512 
     48 C48       -78.4749   30.5394  -76.1794 C.3       11 UNK         0.0225 
     49 N         -78.4835   26.1201  -77.5043 N.am      5 UNK        -0.4615 
     50 C         -79.1716   25.1014  -76.9774 C.2       4 UNK         0.5053 
     51 O         -78.8627   24.5267  -75.9318 O.2       4 UNK        -0.5105 
     52 CA        -80.4258   24.6510  -77.7409 C.3       4 UNK         0.0263 
     53 CB        -80.3316   23.1712  -78.1445 C.3       4 UNK        -0.1981 
     54 N         -81.6201   24.8515  -76.9209 N.am      4 UNK        -0.4224 
     55 C         -82.1384   26.0383  -76.5822 C.2       3 UNK         0.4895 
     56 O         -81.7129   27.1115  -77.0083 O.2       3 UNK        -0.5091 
     57 CA        -83.3315   26.0513  -75.6073 C.3       3 UNK         0.0250 
     58 CB        -84.6655   25.8890  -76.3627 C.3       3 UNK        -0.1996 
     59 N         -83.2297   25.1118  -74.4790 N.am      3 UNK        -0.4254 
     60 C         -83.2592   23.7722  -74.4912 C.2       2 UNK         0.5004 
     61 O         -83.3308   23.0911  -75.5163 O.2       2 UNK        -0.5226 
     62 CA        -83.1200   23.0788  -73.1270 C.3       2 UNK         0.0269 
     63 CB        -83.8697   21.7350  -73.0830 C.3       2 UNK        -0.1926 
     64 N         -81.7075   22.8423  -72.8423 N.am      2 UNK        -0.4687 
     65 C         -80.8351   23.7670  -72.4200 C.2       1 UNK         0.5165 
     66 O         -81.1665   24.9150  -72.1200 O.2       1 UNK        -0.5079 
     67 H67       -78.3940   21.9070  -75.9811 H         1 UNK         0.0900 
     68 H68       -79.4570   20.5069  -75.8640 H         1 UNK         0.0900 
     69 H69       -77.7801   20.3864  -75.3248 H         1 UNK         0.0900 
     70 H70       -78.6674   23.4190  -74.3257 H         1 UNK         0.2959 
     71 H71       -79.3591   22.5232  -71.5860 H         1 UNK         0.1079 
     72 H72       -78.7714   24.8700  -70.9117 H         1 UNK         0.0837 
     73 H73       -77.4673   23.8840  -71.4712 H         1 UNK         0.0837 
     74 H74       -79.7703   27.0537  -72.6847 H         1 UNK         0.0685 
     75 H75       -78.6662   27.1882  -71.3331 H         1 UNK         0.0685 
     76 H76       -79.4452   28.4191  -74.7137 H         1 UNK         0.1434 
     77 H77       -76.4392   31.4860  -74.6429 H         1 UNK         0.1329 
     78 H78       -76.6494   28.6136  -71.4721 H         1 UNK         0.1335 
     79 H79       -75.3672   31.8885  -72.3043 H         1 UNK         0.0680 
     80 H80       -75.2101   30.5051  -71.2434 H         1 UNK         0.0680 
     81 H81       -72.1651   29.5743  -71.4444 H         1 UNK         0.1032 
     82 H82       -72.9452   31.0508  -70.9389 H         1 UNK         0.1032 
     83 H83       -71.6006   32.3630  -72.5410 H         1 UNK         0.0461 
     84 H84       -68.4014   31.3331  -70.3249 H         1 UNK         0.3453 
     85 H85       -68.7067   30.6277  -71.8940 H         1 UNK         0.3453 
     86 H86       -70.8011   29.8021  -73.6151 H         1 UNK         0.2984 
     87 H87       -69.3692   31.3528  -76.3911 H         1 UNK         0.0554 
     88 H88       -67.3960   29.8618  -76.2049 H         1 UNK         0.0847 
     89 H89       -67.6948   29.6320  -74.4814 H         1 UNK         0.0847 
     90 H90       -67.2328   31.2124  -75.0973 H         1 UNK         0.0847 
     91 H91       -69.5929   28.5865  -75.6678 H         1 UNK         0.3141 
     92 H92       -72.5389   28.1920  -77.5445 H         1 UNK         0.0743 
     93 H93       -70.1515   27.5315  -78.0185 H         1 UNK         0.0784 
     94 H94       -71.1967   26.1686  -77.6625 H         1 UNK         0.0784 
     95 H95       -70.0717   26.7454  -76.4434 H         1 UNK         0.0784 
     96 H96       -73.5249   27.0292  -75.9784 H         1 UNK         0.3213 
     97 H97       -72.5053   25.4141  -73.1094 H         1 UNK         0.0855 
     98 H98       -73.2548   27.4527  -71.8575 H         1 UNK         0.0814 
     99 H99       -74.4822   26.1977  -71.8564 H         1 UNK         0.0814 
    100 H100      -74.6488   27.5873  -72.9244 H         1 UNK         0.0814 
    101 H101      -75.0903   25.6804  -74.3516 H         1 UNK         0.3105 
    102 H102      -74.5140   23.8057  -77.2035 H         1 UNK         0.0547 
    103 H103      -75.9753   22.6267  -74.7828 H         1 UNK         0.0837 
    104 H104      -74.6036   21.8672  -75.5787 H         1 UNK         0.0837 
    105 H105      -76.0940   22.1006  -76.4676 H         1 UNK         0.0837 
    106 H106      -76.9918   24.5001  -76.0174 H         1 UNK         0.3020 
    107 H107      -77.6629   26.9751  -75.8069 H         1 UNK         0.1245 
    108 H108      -76.9037   28.2313  -78.4922 H         1 UNK         0.0781 
    109 H109      -76.4673   28.8483  -76.9208 H         1 UNK         0.0781 
    110 H110      -79.3897   31.1128  -76.0248 H         1 UNK         0.0836 
    111 H111      -77.7447   31.2331  -76.5992 H         1 UNK         0.0836 
    112 H112      -78.8173   26.5245  -78.3671 H         1 UNK         0.3022 
    113 H113      -80.5267   25.2478  -78.6499 H         1 UNK         0.0747 
    114 H114      -81.1624   22.8860  -78.7901 H         1 UNK         0.0793 
    115 H115      -79.4099   22.9695  -78.6920 H         1 UNK         0.0793 
    116 H116      -80.3496   22.5153  -77.2743 H         1 UNK         0.0793 
    117 H117      -82.0555   24.0257  -76.5179 H         1 UNK         0.3047 
    118 H118      -83.3390   27.0431  -75.1519 H         1 UNK         0.0822 
    119 H119      -85.5170   25.9800  -75.6884 H         1 UNK         0.0807 
    120 H120      -84.7372   24.9243  -76.8659 H         1 UNK         0.0807 
    121 H121      -84.7742   26.6595  -77.1272 H         1 UNK         0.0807 
    122 H122      -83.0608   25.5511  -73.5827 H         1 UNK         0.2946 
    123 H123      -83.5442   23.7279  -72.3570 H         1 UNK         0.1144 
    124 H124      -84.9264   21.8712  -73.3171 H         1 UNK         0.0793 
    125 H125      -83.8132   21.2829  -72.0926 H         1 UNK         0.0793 
    126 H126      -83.4664   21.0188  -73.8002 H         1 UNK         0.0793 
    127 H127      -81.3408   21.9295  -73.0830 H         1 UNK         0.2896 
@<TRIPOS>BOND
     1    1    2 1    
     2    1   67 1    
     3    1   68 1    
     4    1   69 1    
     5    2    3 2    
     6    2    4 am   BACKBONE|DICT|INTERRES
     7    4    5 1    
     8    4   70 1    
     9    5    6 1    
    10    5   65 1    
    11    5   71 1    
    12    6    7 1    
    13    6   72 1    
    14    6   73 1    
    15    7    8 1    
    16    8    9 1    
    17    8   74 1    
    18    8   75 1    
    19    9   10 ar   
    20    9   14 ar   
    21   10   11 ar   
    22   10   76 1    
    23   11   12 ar   
    24   11   48 1    
    25   12   13 ar   
    26   12   77 1    
    27   13   14 ar   
    28   13   15 1    
    29   14   78 1    
    30   15   16 1    
    31   15   79 1    
    32   15   80 1    
    33   16   17 1    
    34   17   18 1    
    35   17   81 1    
    36   17   82 1    
    37   18   19 1    
    38   18   22 1    
    39   18   83 1    
    40   19   20 am   BACKBONE|DICT|INTERRES
    41   19   21 2    
    42   20   84 1    
    43   20   85 1    
    44   22   23 am   BACKBONE|DICT|INTERRES
    45   22   86 1    
    46   23   24 2    
    47   23   25 1    
    48   25   26 1    
    49   25   27 1    
    50   25   87 1    
    51   26   88 1    
    52   26   89 1    
    53   26   90 1    
    54   27   28 am   BACKBONE|DICT|INTERRES
    55   27   91 1    
    56   28   29 2    
    57   28   30 1    
    58   30   31 1    
    59   30   32 1    
    60   30   92 1    
    61   31   93 1    
    62   31   94 1    
    63   31   95 1    
    64   32   33 am   BACKBONE|DICT|INTERRES
    65   32   96 1    
    66   33   34 2    
    67   33   35 1    
    68   35   36 1    
    69   35   37 1    
    70   35   97 1    
    71   36   98 1    
    72   36   99 1    
    73   36  100 1    
    74   37   38 am   BACKBONE|DICT|INTERRES
    75   37  101 1    
    76   38   39 2    
    77   38   40 1    
    78   40   41 1    
    79   40   42 1    
    80   40  102 1    
    81   41  103 1    
    82   41  104 1    
    83   41  105 1    
    84   42   43 am   BACKBONE|DICT|INTERRES
    85   42  106 1    
    86   43   44 2    
    87   43   45 1    
    88   45   46 1    
    89   45   49 1    
    90   45  107 1    
    91   46   47 1    
    92   46  108 1    
    93   46  109 1    
    94   47   48 1    
    95   48  110 1    
    96   48  111 1    
    97   49   50 am   BACKBONE|DICT|INTERRES
    98   49  112 1    
    99   50   51 2    
   100   50   52 1    
   101   52   53 1    
   102   52   54 1    
   103   52  113 1    
   104   53  114 1    
   105   53  115 1    
   106   53  116 1    
   107   54   55 am   BACKBONE|DICT|INTERRES
   108   54  117 1    
   109   55   56 2    
   110   55   57 1    
   111   57   58 1    
   112   57   59 1    
   113   57  118 1    
   114   58  119 1    
   115   58  120 1    
   116   58  121 1    
   117   59   60 am   BACKBONE|DICT|INTERRES
   118   59  122 1    
   119   60   61 2    
   120   60   62 1    
   121   62   63 1    
   122   62   64 1    
   123   62  123 1    
   124   63  124 1    
   125   63  125 1    
   126   63  126 1    
   127   64   65 am   BACKBONE|DICT|INTERRES
   128   64  127 1    
   129   65   66 2    
@<TRIPOS>SUBSTRUCTURE
     1 UNK         1 GROUP             0       ****    0 ROOT    
