@<TRIPOS>MOLECULE
3R135
127   129    1
SMALL
USER_CHARGES


@<TRIPOS>ATOM
      1 CA        -83.1425   28.1392  -70.5108 C.3       0 UNK        -0.1998 
      2 C         -83.6190   27.8744  -71.9311 C.2       0 UNK         0.4909 
      3 O         -84.7264   27.3722  -72.1242 O.2       0 UNK        -0.5240 
      4 N         -82.7882   28.2070  -72.9274 N.am      1 UNK        -0.4739 
      5 CA        -83.0584   27.9981  -74.3566 C.3       1 UNK         0.0864 
      6 C6        -82.1940   28.9351  -75.2417 C.3       11 UNK        -0.0881 
      7 S7        -80.3965   28.6494  -75.0833 S.3       11 UNK        -0.2682 
      8 C8        -79.8914   29.9921  -73.9702 C.3       11 UNK         0.0289 
      9 C9        -78.6334   29.6109  -73.2067 C.ar      11 UNK        -0.0687 
     10 C10       -78.7110   28.6885  -72.1596 C.ar      11 UNK        -0.0823 
     11 C11       -77.5730   28.3492  -71.4244 C.ar      11 UNK        -0.0830 
     12 C12       -76.3498   28.9509  -71.7359 C.ar      11 UNK        -0.1021 
     13 C13       -76.2544   29.8649  -72.7912 C.ar      11 UNK        -0.0753 
     14 C14       -77.4002   30.1864  -73.5268 C.ar      11 UNK        -0.0933 
     15 C15       -74.9272   30.5350  -73.1213 C.3       11 UNK         0.0166 
     16 S16       -73.9184   29.5329  -74.2574 S.3       11 UNK        -0.2615 
     17 C17       -72.9381   28.5263  -73.0874 C.3       11 UNK        -0.0865 
     18 CA        -71.4817   29.0346  -72.9148 C.3       10 UNK         0.0862 
     19 C         -70.7297   28.1955  -71.8402 C.2       10 UNK         0.5551 
     20 N         -69.6769   27.4628  -72.1825 N.am      10 UNK        -0.7319 
     21 O         -71.1099   28.2152  -70.6724 O.2       10 UNK        -0.5018 
     22 N         -70.7956   29.1464  -74.2117 N.am      10 UNK        -0.4509 
     23 C         -69.6894   29.8607  -74.4591 C.2       10 UNK         0.4899 
     24 O         -69.0693   30.4895  -73.6015 O.2       10 UNK        -0.4839 
     25 CA        -69.1927   29.8845  -75.9181 C.3       9 UNK         0.0222 
     26 CB        -68.0324   28.8941  -76.1061 C.3       9 UNK        -0.1966 
     27 N         -70.2541   29.5670  -76.8774 N.am      9 UNK        -0.4218 
     28 C         -71.2735   30.3729  -77.1988 C.2       9 UNK         0.5020 
     29 O         -71.3527   31.5495  -76.8443 O.2       9 UNK        -0.5274 
     30 CA        -72.4251   29.7523  -78.0101 C.3       8 UNK         0.0270 
     31 CB        -72.1033   29.7256  -79.5173 C.3       8 UNK        -0.1976 
     32 N         -72.8635   28.4352  -77.5166 N.am      8 UNK        -0.4313 
     33 C         -72.2142   27.2610  -77.5335 C.2       8 UNK         0.5041 
     34 O         -71.0766   27.1242  -77.9863 O.2       8 UNK        -0.5577 
     35 CA        -72.9073   26.0443  -76.8894 C.3       7 UNK         0.0284 
     36 CB        -72.0318   25.4443  -75.7749 C.3       7 UNK        -0.1958 
     37 N         -74.2355   26.3366  -76.3413 N.am      7 UNK        -0.4454 
     38 C         -75.3677   26.4204  -77.0468 C.2       7 UNK         0.5089 
     39 O         -75.4031   26.2867  -78.2712 O.2       7 UNK        -0.5125 
     40 CA        -76.6635   26.7219  -76.2580 C.3       6 UNK         0.0408 
     41 CB        -77.8880   26.7705  -77.1903 C.3       6 UNK        -0.1791 
     42 N         -76.9486   25.7696  -75.1782 N.am      6 UNK        -0.4762 
     43 C         -76.2537   25.5892  -74.0440 C.2       6 UNK         0.5007 
     44 O         -75.2254   26.2059  -73.7675 O.2       6 UNK        -0.5032 
     45 CA        -76.7631   24.5061  -73.0737 C.3       5 UNK         0.0783 
     46 C46       -77.7167   25.0840  -71.9968 C.3       11 UNK        -0.0857 
     47 S47       -76.7892   25.8018  -70.5968 S.3       11 UNK        -0.2512 
     48 C48       -77.6778   27.3583  -70.2730 C.3       11 UNK         0.0225 
     49 N         -77.3792   23.3960  -73.8060 N.am      5 UNK        -0.4615 
     50 C         -76.7084   22.3263  -74.2571 C.2       4 UNK         0.5053 
     51 O         -75.5071   22.1414  -74.0608 O.2       4 UNK        -0.5105 
     52 CA        -77.5008   21.2708  -75.0507 C.3       4 UNK         0.0263 
     53 CB        -77.9674   20.1410  -74.1184 C.3       4 UNK        -0.1981 
     54 N         -78.6601   21.8234  -75.7525 N.am      4 UNK        -0.4224 
     55 C         -78.5922   22.6136  -76.8332 C.2       3 UNK         0.4895 
     56 O         -77.5430   22.9009  -77.4085 O.2       3 UNK        -0.5091 
     57 CA        -79.9189   23.2062  -77.3443 C.3       3 UNK         0.0250 
     58 CB        -80.5050   22.3249  -78.4590 C.3       3 UNK        -0.1996 
     59 N         -80.9344   23.4123  -76.3027 N.am      3 UNK        -0.4254 
     60 C         -80.7821   24.1918  -75.2232 C.2       2 UNK         0.5004 
     61 O         -79.7331   24.7754  -74.9398 O.2       2 UNK        -0.5226 
     62 CA        -81.9750   24.2884  -74.2634 C.3       2 UNK         0.0269 
     63 CB        -81.6667   23.5515  -72.9493 C.3       2 UNK        -0.1926 
     64 N         -82.2712   25.6883  -73.9696 N.am      2 UNK        -0.4687 
     65 C         -82.9349   26.5171  -74.7887 C.2       1 UNK         0.5165 
     66 O         -83.4443   26.1542  -75.8507 O.2       1 UNK        -0.5079 
     67 H67       -82.1571   28.6042  -70.4895 H         1 UNK         0.0900 
     68 H68       -83.0890   27.2046  -69.9530 H         1 UNK         0.0900 
     69 H69       -83.8401   28.8017  -69.9991 H         1 UNK         0.0900 
     70 H70       -81.8918   28.6176  -72.7152 H         1 UNK         0.2959 
     71 H71       -84.1023   28.2687  -74.5321 H         1 UNK         0.1079 
     72 H72       -82.4634   28.8122  -76.2925 H         1 UNK         0.0837 
     73 H73       -82.4181   29.9774  -75.0089 H         1 UNK         0.0837 
     74 H74       -79.7366   30.9013  -74.5532 H         1 UNK         0.0685 
     75 H75       -80.6868   30.2147  -73.2580 H         1 UNK         0.0685 
     76 H76       -79.6616   28.2356  -71.9166 H         1 UNK         0.1434 
     77 H77       -75.4745   28.7004  -71.1543 H         1 UNK         0.1329 
     78 H78       -77.3340   30.8967  -74.3395 H         1 UNK         0.1335 
     79 H79       -74.3687   30.7463  -72.2081 H         1 UNK         0.0680 
     80 H80       -75.1100   31.5037  -73.5889 H         1 UNK         0.0680 
     81 H81       -72.9388   27.4964  -73.4434 H         1 UNK         0.1032 
     82 H82       -73.4461   28.4957  -72.1236 H         1 UNK         0.1032 
     83 H83       -71.5415   30.0455  -72.5067 H         1 UNK         0.0461 
     84 H84       -69.1967   26.9272  -71.4767 H         1 UNK         0.3453 
     85 H85       -69.3516   27.4516  -73.1351 H         1 UNK         0.3453 
     86 H86       -71.2450   28.6854  -74.9864 H         1 UNK         0.2984 
     87 H87       -68.8250   30.8909  -76.1287 H         1 UNK         0.0554 
     88 H88       -67.6232   28.9506  -77.1150 H         1 UNK         0.0847 
     89 H89       -68.3458   27.8644  -75.9293 H         1 UNK         0.0847 
     90 H90       -67.2168   29.1113  -75.4148 H         1 UNK         0.0847 
     91 H91       -70.2878   28.6186  -77.2503 H         1 UNK         0.3141 
     92 H92       -73.2856   30.4100  -77.8756 H         1 UNK         0.0743 
     93 H93       -71.2338   29.1073  -79.7418 H         1 UNK         0.0784 
     94 H94       -72.9448   29.3425  -80.0946 H         1 UNK         0.0784 
     95 H95       -71.8879   30.7297  -79.8849 H         1 UNK         0.0784 
     96 H96       -73.7674   28.4340  -77.0645 H         1 UNK         0.3213 
     97 H97       -73.0173   25.2910  -77.6726 H         1 UNK         0.0855 
     98 H98       -71.8189   26.1680  -74.9891 H         1 UNK         0.0814 
     99 H99       -72.5109   24.5796  -75.3149 H         1 UNK         0.0814 
    100 H100      -71.0729   25.1065  -76.1705 H         1 UNK         0.0814 
    101 H101      -74.3221   26.4263  -75.3295 H         1 UNK         0.3105 
    102 H102      -76.5470   27.7072  -75.8015 H         1 UNK         0.0547 
    103 H103      -77.8056   27.5922  -77.9025 H         1 UNK         0.0837 
    104 H104      -77.9891   25.8491  -77.7641 H         1 UNK         0.0837 
    105 H105      -78.8131   26.9111  -76.6354 H         1 UNK         0.0837 
    106 H106      -77.8097   25.2419  -75.2793 H         1 UNK         0.3020 
    107 H107      -75.8810   24.1156  -72.5598 H         1 UNK         0.1245 
    108 H108      -78.3370   24.2891  -71.5800 H         1 UNK         0.0781 
    109 H109      -78.4129   25.8075  -72.4254 H         1 UNK         0.0781 
    110 H110      -77.2640   27.8165  -69.3737 H         1 UNK         0.0836 
    111 H111      -78.7201   27.1305  -70.0443 H         1 UNK         0.0836 
    112 H112      -78.3500   23.5211  -74.0667 H         1 UNK         0.3022 
    113 H113      -76.8246   20.8428  -75.7942 H         1 UNK         0.0747 
    114 H114      -78.4657   19.3469  -74.6749 H         1 UNK         0.0793 
    115 H115      -77.1205   19.6884  -73.6005 H         1 UNK         0.0793 
    116 H116      -78.6587   20.5039  -73.3565 H         1 UNK         0.0793 
    117 H117      -79.5694   21.6271  -75.3606 H         1 UNK         0.3047 
    118 H118      -79.6923   24.1849  -77.7707 H         1 UNK         0.0822 
    119 H119      -81.3877   22.7831  -78.9057 H         1 UNK         0.0807 
    120 H120      -80.7878   21.3386  -78.0887 H         1 UNK         0.0807 
    121 H121      -79.7802   22.1761  -79.2609 H         1 UNK         0.0807 
    122 H122      -81.8250   22.9597  -76.4528 H         1 UNK         0.2946 
    123 H123      -82.8533   23.8290  -74.7230 H         1 UNK         0.1144 
    124 H124      -81.4535   22.4974  -73.1317 H         1 UNK         0.0793 
    125 H125      -82.5131   23.5955  -72.2636 H         1 UNK         0.0793 
    126 H126      -80.8011   23.9761  -72.4390 H         1 UNK         0.0793 
    127 H127      -81.8481   26.0799  -73.1419 H         1 UNK         0.2896 
@<TRIPOS>BOND
     1    1    2 1    
     2    1   67 1    
     3    1   68 1    
     4    1   69 1    
     5    2    3 2    
     6    2    4 am   BACKBONE|DICT|INTERRES
     7    4    5 1    
     8    4   70 1    
     9    5    6 1    
    10    5   65 1    
    11    5   71 1    
    12    6    7 1    
    13    6   72 1    
    14    6   73 1    
    15    7    8 1    
    16    8    9 1    
    17    8   74 1    
    18    8   75 1    
    19    9   10 ar   
    20    9   14 ar   
    21   10   11 ar   
    22   10   76 1    
    23   11   12 ar   
    24   11   48 1    
    25   12   13 ar   
    26   12   77 1    
    27   13   14 ar   
    28   13   15 1    
    29   14   78 1    
    30   15   16 1    
    31   15   79 1    
    32   15   80 1    
    33   16   17 1    
    34   17   18 1    
    35   17   81 1    
    36   17   82 1    
    37   18   19 1    
    38   18   22 1    
    39   18   83 1    
    40   19   20 am   BACKBONE|DICT|INTERRES
    41   19   21 2    
    42   20   84 1    
    43   20   85 1    
    44   22   23 am   BACKBONE|DICT|INTERRES
    45   22   86 1    
    46   23   24 2    
    47   23   25 1    
    48   25   26 1    
    49   25   27 1    
    50   25   87 1    
    51   26   88 1    
    52   26   89 1    
    53   26   90 1    
    54   27   28 am   BACKBONE|DICT|INTERRES
    55   27   91 1    
    56   28   29 2    
    57   28   30 1    
    58   30   31 1    
    59   30   32 1    
    60   30   92 1    
    61   31   93 1    
    62   31   94 1    
    63   31   95 1    
    64   32   33 am   BACKBONE|DICT|INTERRES
    65   32   96 1    
    66   33   34 2    
    67   33   35 1    
    68   35   36 1    
    69   35   37 1    
    70   35   97 1    
    71   36   98 1    
    72   36   99 1    
    73   36  100 1    
    74   37   38 am   BACKBONE|DICT|INTERRES
    75   37  101 1    
    76   38   39 2    
    77   38   40 1    
    78   40   41 1    
    79   40   42 1    
    80   40  102 1    
    81   41  103 1    
    82   41  104 1    
    83   41  105 1    
    84   42   43 am   BACKBONE|DICT|INTERRES
    85   42  106 1    
    86   43   44 2    
    87   43   45 1    
    88   45   46 1    
    89   45   49 1    
    90   45  107 1    
    91   46   47 1    
    92   46  108 1    
    93   46  109 1    
    94   47   48 1    
    95   48  110 1    
    96   48  111 1    
    97   49   50 am   BACKBONE|DICT|INTERRES
    98   49  112 1    
    99   50   51 2    
   100   50   52 1    
   101   52   53 1    
   102   52   54 1    
   103   52  113 1    
   104   53  114 1    
   105   53  115 1    
   106   53  116 1    
   107   54   55 am   BACKBONE|DICT|INTERRES
   108   54  117 1    
   109   55   56 2    
   110   55   57 1    
   111   57   58 1    
   112   57   59 1    
   113   57  118 1    
   114   58  119 1    
   115   58  120 1    
   116   58  121 1    
   117   59   60 am   BACKBONE|DICT|INTERRES
   118   59  122 1    
   119   60   61 2    
   120   60   62 1    
   121   62   63 1    
   122   62   64 1    
   123   62  123 1    
   124   63  124 1    
   125   63  125 1    
   126   63  126 1    
   127   64   65 am   BACKBONE|DICT|INTERRES
   128   64  127 1    
   129   65   66 2    
@<TRIPOS>SUBSTRUCTURE
     1 UNK         1 GROUP             0       ****    0 ROOT    
