@<TRIPOS>MOLECULE
3R135
127   129    1
SMALL
USER_CHARGES


@<TRIPOS>ATOM
      1 CA        -84.2616   31.0463  -74.4866 C.3       0 UNK        -0.1998 
      2 C         -82.9795   30.5127  -75.1075 C.2       0 UNK         0.4909 
      3 O         -82.7012   30.7919  -76.2740 O.2       0 UNK        -0.5240 
      4 N         -82.1955   29.7487  -74.3358 N.am      1 UNK        -0.4739 
      5 CA        -80.9428   29.1175  -74.7722 C.3       1 UNK         0.0864 
      6 C6        -80.0887   28.6482  -73.5666 C.3       11 UNK        -0.0881 
      7 S7        -80.9661   27.5074  -72.4342 S.3       11 UNK        -0.2682 
      8 C8        -80.3780   28.0560  -70.8014 C.3       11 UNK         0.0289 
      9 C9        -78.9138   27.7047  -70.5811 C.ar      11 UNK        -0.0687 
     10 C10       -78.5544   26.4393  -70.1022 C.ar      11 UNK        -0.0823 
     11 C11       -77.2087   26.1162  -69.9005 C.ar      11 UNK        -0.0830 
     12 C12       -76.2264   27.0796  -70.1516 C.ar      11 UNK        -0.1021 
     13 C13       -76.5687   28.3239  -70.6852 C.ar      11 UNK        -0.0753 
     14 C14       -77.9161   28.6399  -70.8753 C.ar      11 UNK        -0.0933 
     15 C15       -75.4787   29.2973  -71.1102 C.3       11 UNK         0.0166 
     16 S16       -74.5149   28.6133  -72.4991 S.3       11 UNK        -0.2615 
     17 C17       -73.6072   30.0789  -73.0915 C.3       11 UNK        -0.0865 
     18 CA        -73.9733   30.4210  -74.5740 C.3       10 UNK         0.0862 
     19 C         -74.4630   31.8892  -74.7790 C.2       10 UNK         0.5551 
     20 N         -74.2011   32.5194  -75.9177 N.am      10 UNK        -0.7319 
     21 O         -75.1275   32.4544  -73.9138 O.2       10 UNK        -0.5018 
     22 N         -72.9439   29.9590  -75.5269 N.am      10 UNK        -0.4509 
     23 C         -71.6968   30.4416  -75.6239 C.2       10 UNK         0.4899 
     24 O         -71.2492   31.3415  -74.9109 O.2       10 UNK        -0.4839 
     25 CA        -70.8096   29.7972  -76.7046 C.3       9 UNK         0.0222 
     26 CB        -69.4134   30.4476  -76.8124 C.3       9 UNK        -0.1966 
     27 N         -70.6995   28.3439  -76.5396 N.am      9 UNK        -0.4218 
     28 C         -70.1988   27.6638  -75.4958 C.2       9 UNK         0.5020 
     29 O         -69.7195   28.2012  -74.4957 O.2       9 UNK        -0.5274 
     30 CA        -70.2332   26.1218  -75.5842 C.3       8 UNK         0.0270 
     31 CB        -70.1876   25.4558  -74.1958 C.3       8 UNK        -0.1976 
     32 N         -71.4101   25.6329  -76.3094 N.am      8 UNK        -0.4313 
     33 C         -71.4907   25.4809  -77.6400 C.2       8 UNK         0.5041 
     34 O         -70.5436   25.6814  -78.4003 O.2       8 UNK        -0.5577 
     35 CA        -72.8567   25.0979  -78.2422 C.3       7 UNK         0.0284 
     36 CB        -72.9081   23.5910  -78.5396 C.3       7 UNK        -0.1958 
     37 N         -73.9994   25.4575  -77.4007 N.am      7 UNK        -0.4454 
     38 C         -74.3333   26.6990  -77.0183 C.2       7 UNK         0.5089 
     39 O         -73.7537   27.7202  -77.3932 O.2       7 UNK        -0.5125 
     40 CA        -75.4697   26.8216  -75.9901 C.3       6 UNK         0.0408 
     41 CB        -76.7917   27.1820  -76.6825 C.3       6 UNK        -0.1791 
     42 N         -75.6710   25.6391  -75.1465 N.am      6 UNK        -0.4762 
     43 C         -74.7473   25.0707  -74.3510 C.2       6 UNK         0.5007 
     44 O         -73.5616   25.4005  -74.3274 O.2       6 UNK        -0.5032 
     45 CA        -75.2430   23.9494  -73.4140 C.3       5 UNK         0.0783 
     46 C46       -75.7378   24.6290  -72.1153 C.3       11 UNK        -0.0857 
     47 S47       -76.6365   23.5774  -70.9240 S.3       11 UNK        -0.2512 
     48 C48       -76.7947   24.7069  -69.4891 C.3       11 UNK         0.0225 
     49 N         -76.2764   23.1106  -74.0266 N.am      5 UNK        -0.4615 
     50 C         -76.1974   22.4651  -75.1990 C.2       4 UNK         0.5053 
     51 O         -75.1820   22.4280  -75.8946 O.2       4 UNK        -0.5105 
     52 CA        -77.4783   21.7709  -75.7020 C.3       4 UNK         0.0263 
     53 CB        -77.3611   20.2471  -75.5361 C.3       4 UNK        -0.1981 
     54 N         -78.7163   22.2307  -75.0568 N.am      4 UNK        -0.4224 
     55 C         -79.1943   23.4831  -75.0901 C.2       3 UNK         0.4895 
     56 O         -78.6263   24.4232  -75.6519 O.2       3 UNK        -0.5091 
     57 CA        -80.4780   23.7298  -74.2816 C.3       3 UNK         0.0250 
     58 CB        -80.1210   24.0381  -72.8171 C.3       3 UNK        -0.1996 
     59 N         -81.2710   24.8331  -74.8264 N.am      3 UNK        -0.4254 
     60 C         -81.9120   24.8098  -76.0049 C.2       2 UNK         0.5004 
     61 O         -81.9552   23.8190  -76.7362 O.2       2 UNK        -0.5226 
     62 CA        -82.6561   26.0880  -76.4407 C.3       2 UNK         0.0269 
     63 CB        -84.1782   25.8803  -76.3652 C.3       2 UNK        -0.1926 
     64 N         -82.3034   27.2688  -75.6485 N.am      2 UNK        -0.4687 
     65 C         -81.1672   27.9688  -75.7787 C.2       1 UNK         0.5165 
     66 O         -80.3164   27.7359  -76.6372 O.2       1 UNK        -0.5079 
     67 H67       -84.3765   30.7277  -73.4507 H         1 UNK         0.0900 
     68 H68       -85.1257   30.6922  -75.0482 H         1 UNK         0.0900 
     69 H69       -84.2638   32.1357  -74.5082 H         1 UNK         0.0900 
     70 H70       -82.4687   29.5506  -73.3831 H         1 UNK         0.2959 
     71 H71       -80.3652   29.8768  -75.3050 H         1 UNK         0.1079 
     72 H72       -79.7735   29.5290  -73.0070 H         1 UNK         0.0837 
     73 H73       -79.1664   28.1686  -73.9019 H         1 UNK         0.0837 
     74 H74       -80.5382   29.1299  -70.6933 H         1 UNK         0.0685 
     75 H75       -80.9874   27.5800  -70.0319 H         1 UNK         0.0685 
     76 H76       -79.3197   25.6983  -69.9147 H         1 UNK         0.1434 
     77 H77       -75.1825   26.8338  -70.0124 H         1 UNK         0.1329 
     78 H78       -78.1872   29.6074  -71.2737 H         1 UNK         0.1335 
     79 H79       -74.8148   29.5002  -70.2688 H         1 UNK         0.0680 
     80 H80       -75.9145   30.2525  -71.4081 H         1 UNK         0.0680 
     81 H81       -72.5416   29.8735  -72.9814 H         1 UNK         0.1032 
     82 H82       -73.7943   30.9117  -72.4121 H         1 UNK         0.1032 
     83 H83       -74.8616   29.8523  -74.8470 H         1 UNK         0.0461 
     84 H84       -73.6719   32.0638  -76.6433 H         1 UNK         0.3453 
     85 H85       -74.5328   33.4620  -76.0486 H         1 UNK         0.3453 
     86 H86       -73.2281   29.2242  -76.1679 H         1 UNK         0.2984 
     87 H87       -71.3186   29.9580  -77.6562 H         1 UNK         0.0554 
     88 H88       -68.8268   29.9980  -77.6134 H         1 UNK         0.0847 
     89 H89       -68.8456   30.3510  -75.8865 H         1 UNK         0.0847 
     90 H90       -69.4962   31.5130  -77.0309 H         1 UNK         0.0847 
     91 H91       -71.0832   27.7942  -77.2969 H         1 UNK         0.3141 
     92 H92       -69.3328   25.8178  -76.1220 H         1 UNK         0.0743 
     93 H93       -71.0129   25.7861  -73.5640 H         1 UNK         0.0784 
     94 H94       -70.2375   24.3696  -74.2732 H         1 UNK         0.0784 
     95 H95       -69.2611   25.6993  -73.6743 H         1 UNK         0.0784 
     96 H96       -72.2459   25.4922  -75.7456 H         1 UNK         0.3213 
     97 H97       -72.9592   25.6400  -79.1847 H         1 UNK         0.0855 
     98 H98       -72.8405   22.9976  -77.6266 H         1 UNK         0.0814 
     99 H99       -72.0822   23.2912  -79.1864 H         1 UNK         0.0814 
    100 H100      -73.8324   23.3172  -79.0488 H         1 UNK         0.0814 
    101 H101      -74.5270   24.6906  -77.0047 H         1 UNK         0.3105 
    102 H102      -75.2045   27.6389  -75.3203 H         1 UNK         0.0547 
    103 H103      -77.1386   26.3785  -77.3335 H         1 UNK         0.0837 
    104 H104      -77.5790   27.3815  -75.9553 H         1 UNK         0.0837 
    105 H105      -76.6842   28.0778  -77.2955 H         1 UNK         0.0837 
    106 H106      -76.6128   25.2629  -75.1268 H         1 UNK         0.3020 
    107 H107      -74.3926   23.3056  -73.1806 H         1 UNK         0.1245 
    108 H108      -74.8869   25.0772  -71.5989 H         1 UNK         0.0781 
    109 H109      -76.4149   25.4481  -72.3696 H         1 UNK         0.0781 
    110 H110      -77.5217   24.2940  -68.7883 H         1 UNK         0.0836 
    111 H111      -75.8432   24.7370  -68.9558 H         1 UNK         0.0836 
    112 H112      -77.1458   23.0597  -73.5172 H         1 UNK         0.3022 
    113 H113      -77.5631   21.9949  -76.7674 H         1 UNK         0.0747 
    114 H114      -78.2151   19.7317  -75.9760 H         1 UNK         0.0793 
    115 H115      -76.4669   19.8674  -76.0327 H         1 UNK         0.0793 
    116 H116      -77.2970   19.9591  -74.4859 H         1 UNK         0.0793 
    117 H117      -79.2395   21.5298  -74.5511 H         1 UNK         0.3047 
    118 H118      -81.0941   22.8285  -74.3126 H         1 UNK         0.0822 
    119 H119      -81.0112   24.2475  -72.2236 H         1 UNK         0.0807 
    120 H120      -79.4545   24.8985  -72.7366 H         1 UNK         0.0807 
    121 H121      -79.6142   23.1938  -72.3482 H         1 UNK         0.0807 
    122 H122      -81.2667   25.6963  -74.3016 H         1 UNK         0.2946 
    123 H123      -82.3857   26.2754  -77.4826 H         1 UNK         0.1144 
    124 H124      -84.7167   26.7538  -76.7335 H         1 UNK         0.0793 
    125 H125      -84.5091   25.6859  -75.3442 H         1 UNK         0.0793 
    126 H126      -84.4879   25.0307  -76.9755 H         1 UNK         0.0793 
    127 H127      -82.9433   27.5374  -74.9146 H         1 UNK         0.2896 
@<TRIPOS>BOND
     1    1    2 1    
     2    1   67 1    
     3    1   68 1    
     4    1   69 1    
     5    2    3 2    
     6    2    4 am   BACKBONE|DICT|INTERRES
     7    4    5 1    
     8    4   70 1    
     9    5    6 1    
    10    5   65 1    
    11    5   71 1    
    12    6    7 1    
    13    6   72 1    
    14    6   73 1    
    15    7    8 1    
    16    8    9 1    
    17    8   74 1    
    18    8   75 1    
    19    9   10 ar   
    20    9   14 ar   
    21   10   11 ar   
    22   10   76 1    
    23   11   12 ar   
    24   11   48 1    
    25   12   13 ar   
    26   12   77 1    
    27   13   14 ar   
    28   13   15 1    
    29   14   78 1    
    30   15   16 1    
    31   15   79 1    
    32   15   80 1    
    33   16   17 1    
    34   17   18 1    
    35   17   81 1    
    36   17   82 1    
    37   18   19 1    
    38   18   22 1    
    39   18   83 1    
    40   19   20 am   BACKBONE|DICT|INTERRES
    41   19   21 2    
    42   20   84 1    
    43   20   85 1    
    44   22   23 am   BACKBONE|DICT|INTERRES
    45   22   86 1    
    46   23   24 2    
    47   23   25 1    
    48   25   26 1    
    49   25   27 1    
    50   25   87 1    
    51   26   88 1    
    52   26   89 1    
    53   26   90 1    
    54   27   28 am   BACKBONE|DICT|INTERRES
    55   27   91 1    
    56   28   29 2    
    57   28   30 1    
    58   30   31 1    
    59   30   32 1    
    60   30   92 1    
    61   31   93 1    
    62   31   94 1    
    63   31   95 1    
    64   32   33 am   BACKBONE|DICT|INTERRES
    65   32   96 1    
    66   33   34 2    
    67   33   35 1    
    68   35   36 1    
    69   35   37 1    
    70   35   97 1    
    71   36   98 1    
    72   36   99 1    
    73   36  100 1    
    74   37   38 am   BACKBONE|DICT|INTERRES
    75   37  101 1    
    76   38   39 2    
    77   38   40 1    
    78   40   41 1    
    79   40   42 1    
    80   40  102 1    
    81   41  103 1    
    82   41  104 1    
    83   41  105 1    
    84   42   43 am   BACKBONE|DICT|INTERRES
    85   42  106 1    
    86   43   44 2    
    87   43   45 1    
    88   45   46 1    
    89   45   49 1    
    90   45  107 1    
    91   46   47 1    
    92   46  108 1    
    93   46  109 1    
    94   47   48 1    
    95   48  110 1    
    96   48  111 1    
    97   49   50 am   BACKBONE|DICT|INTERRES
    98   49  112 1    
    99   50   51 2    
   100   50   52 1    
   101   52   53 1    
   102   52   54 1    
   103   52  113 1    
   104   53  114 1    
   105   53  115 1    
   106   53  116 1    
   107   54   55 am   BACKBONE|DICT|INTERRES
   108   54  117 1    
   109   55   56 2    
   110   55   57 1    
   111   57   58 1    
   112   57   59 1    
   113   57  118 1    
   114   58  119 1    
   115   58  120 1    
   116   58  121 1    
   117   59   60 am   BACKBONE|DICT|INTERRES
   118   59  122 1    
   119   60   61 2    
   120   60   62 1    
   121   62   63 1    
   122   62   64 1    
   123   62  123 1    
   124   63  124 1    
   125   63  125 1    
   126   63  126 1    
   127   64   65 am   BACKBONE|DICT|INTERRES
   128   64  127 1    
   129   65   66 2    
@<TRIPOS>SUBSTRUCTURE
     1 UNK         1 GROUP             0       ****    0 ROOT    
