@<TRIPOS>MOLECULE
3R135
127   129    1
SMALL
USER_CHARGES


@<TRIPOS>ATOM
      1 CA        -77.1233   28.6762  -76.1810 C.3       0 UNK        -0.1998 
      2 C         -78.2004   27.9981  -75.3509 C.2       0 UNK         0.4909 
      3 O         -78.1579   26.7803  -75.1736 O.2       0 UNK        -0.5240 
      4 N         -79.1668   28.7824  -74.8541 N.am      1 UNK        -0.4739 
      5 CA        -80.3154   28.3078  -74.0770 C.3       1 UNK         0.0864 
      6 C6        -81.0180   29.4787  -73.3380 C.3       11 UNK        -0.0881 
      7 S7        -81.8649   28.9296  -71.8141 S.3       11 UNK        -0.2682 
      8 C8        -80.6522   29.3579  -70.5193 C.3       11 UNK         0.0289 
      9 C9        -79.2933   28.7193  -70.7728 C.ar      11 UNK        -0.0687 
     10 C10       -79.1525   27.3289  -70.7531 C.ar      11 UNK        -0.0823 
     11 C11       -77.9292   26.7237  -71.0586 C.ar      11 UNK        -0.0830 
     12 C12       -76.8254   27.5425  -71.3469 C.ar      11 UNK        -0.1021 
     13 C13       -76.9490   28.9357  -71.3562 C.ar      11 UNK        -0.0753 
     14 C14       -78.1850   29.5172  -71.0653 C.ar      11 UNK        -0.0933 
     15 C15       -75.7545   29.8216  -71.6835 C.3       11 UNK         0.0166 
     16 S16       -75.9054   30.5537  -73.3440 S.3       11 UNK        -0.2615 
     17 C17       -74.5161   31.7414  -73.3430 C.3       11 UNK        -0.0865 
     18 CA        -73.4720   31.4827  -74.4708 C.3       10 UNK         0.0862 
     19 C         -72.3891   32.6023  -74.5509 C.2       10 UNK         0.5551 
     20 N         -71.1391   32.2949  -74.8775 N.am      10 UNK        -0.7319 
     21 O         -72.6899   33.7753  -74.3418 O.2       10 UNK        -0.5018 
     22 N         -72.9283   30.1142  -74.4722 N.am      10 UNK        -0.4509 
     23 C         -72.2569   29.5222  -73.4747 C.2       10 UNK         0.4899 
     24 O         -72.0151   30.0534  -72.3909 O.2       10 UNK        -0.4839 
     25 CA        -71.7729   28.0838  -73.7202 C.3       9 UNK         0.0222 
     26 CB        -72.7717   27.0909  -73.1143 C.3       9 UNK        -0.1966 
     27 N         -71.5891   27.7770  -75.1413 N.am      9 UNK        -0.4218 
     28 C         -70.5516   28.2117  -75.8732 C.2       9 UNK         0.5020 
     29 O         -69.6227   28.8752  -75.4101 O.2       9 UNK        -0.5274 
     30 CA        -70.5464   27.8755  -77.3771 C.3       8 UNK         0.0270 
     31 CB        -69.7419   26.5913  -77.6364 C.3       8 UNK        -0.1976 
     32 N         -71.8820   27.7333  -77.9622 N.am      8 UNK        -0.4313 
     33 C         -72.8143   28.6948  -78.0032 C.2       8 UNK         0.5041 
     34 O         -72.6383   29.8390  -77.5844 O.2       8 UNK        -0.5577 
     35 CA        -74.1944   28.3081  -78.5619 C.3       7 UNK         0.0284 
     36 CB        -74.2842   28.6645  -80.0543 C.3       7 UNK        -0.1958 
     37 N         -74.5825   26.9016  -78.3747 N.am      7 UNK        -0.4454 
     38 C         -74.6175   26.2367  -77.2100 C.2       7 UNK         0.5089 
     39 O         -74.2117   26.7086  -76.1457 O.2       7 UNK        -0.5125 
     40 CA        -75.2168   24.8181  -77.2736 C.3       6 UNK         0.0408 
     41 CB        -74.3050   23.8479  -78.0540 C.3       6 UNK        -0.1791 
     42 N         -75.5744   24.2829  -75.9532 N.am      6 UNK        -0.4762 
     43 C         -74.7575   23.8848  -74.9634 C.2       6 UNK         0.5007 
     44 O         -73.5310   23.8134  -75.0513 O.2       6 UNK        -0.5032 
     45 CA        -75.4392   23.4981  -73.6364 C.3       5 UNK         0.0783 
     46 C46       -75.6413   24.7619  -72.7732 C.3       11 UNK        -0.0857 
     47 S47       -76.2355   24.4148  -71.0861 S.3       11 UNK        -0.2512 
     48 C48       -77.8881   25.1914  -71.1085 C.3       11 UNK         0.0225 
     49 N         -76.6930   22.7760  -73.8668 N.am      5 UNK        -0.4615 
     50 C         -76.7789   21.5040  -74.2689 C.2       4 UNK         0.5053 
     51 O         -75.8014   20.7770  -74.4469 O.2       4 UNK        -0.5105 
     52 CA        -78.1885   20.9433  -74.5281 C.3       4 UNK         0.0263 
     53 CB        -78.9488   20.6994  -73.2086 C.3       4 UNK        -0.1981 
     54 N         -78.9828   21.7335  -75.4818 N.am      4 UNK        -0.4224 
     55 C         -79.4792   22.9716  -75.3400 C.2       3 UNK         0.4895 
     56 O         -79.3163   23.6602  -74.3298 O.2       3 UNK        -0.5091 
     57 CA        -80.2401   23.5584  -76.5491 C.3       3 UNK         0.0250 
     58 CB        -80.8948   22.4931  -77.4589 C.3       3 UNK        -0.1996 
     59 N         -81.2178   24.5737  -76.1432 N.am      3 UNK        -0.4254 
     60 C         -82.2906   24.4074  -75.3554 C.2       2 UNK         0.5004 
     61 O         -82.6827   23.3138  -74.9424 O.2       2 UNK        -0.5226 
     62 CA        -83.0238   25.6974  -74.9362 C.3       2 UNK         0.0269 
     63 CB        -84.1992   25.4324  -73.9761 C.3       2 UNK        -0.1926 
     64 N         -82.0975   26.6367  -74.2978 N.am      2 UNK        -0.4687 
     65 C         -81.2972   27.4918  -74.9455 C.2       1 UNK         0.5165 
     66 O         -81.3158   27.6321  -76.1720 O.2       1 UNK        -0.5079 
     67 H67       -76.1492   28.5277  -75.7160 H         1 UNK         0.0900 
     68 H68       -77.1014   28.2458  -77.1812 H         1 UNK         0.0900 
     69 H69       -77.2916   29.7489  -76.2740 H         1 UNK         0.0900 
     70 H70       -79.1539   29.7704  -75.0597 H         1 UNK         0.2959 
     71 H71       -79.9047   27.6178  -73.3388 H         1 UNK         0.1079 
     72 H72       -81.7375   29.9832  -73.9862 H         1 UNK         0.0837 
     73 H73       -80.2925   30.2452  -73.0605 H         1 UNK         0.0837 
     74 H74       -81.0315   29.0239  -69.5527 H         1 UNK         0.0685 
     75 H75       -80.5676   30.4440  -70.4580 H         1 UNK         0.0685 
     76 H76       -80.0167   26.7146  -70.5388 H         1 UNK         0.1434 
     77 H77       -75.8638   27.1125  -71.5782 H         1 UNK         0.1329 
     78 H78       -78.2847   30.5939  -71.0887 H         1 UNK         0.1335 
     79 H79       -74.8231   29.2565  -71.6234 H         1 UNK         0.0680 
     80 H80       -75.6852   30.6168  -70.9397 H         1 UNK         0.0680 
     81 H81       -74.0291   31.7478  -72.3670 H         1 UNK         0.1032 
     82 H82       -74.9515   32.7356  -73.4572 H         1 UNK         0.1032 
     83 H83       -74.0078   31.5628  -75.4173 H         1 UNK         0.0461 
     84 H84       -70.4481   33.0258  -74.9375 H         1 UNK         0.3453 
     85 H85       -70.8835   31.3377  -75.0657 H         1 UNK         0.3453 
     86 H86       -73.0232   29.6195  -75.3493 H         1 UNK         0.2984 
     87 H87       -70.8154   27.9578  -73.2105 H         1 UNK         0.0554 
     88 H88       -72.4576   26.0600  -73.2799 H         1 UNK         0.0847 
     89 H89       -73.7650   27.2174  -73.5473 H         1 UNK         0.0847 
     90 H90       -72.8647   27.2365  -72.0372 H         1 UNK         0.0847 
     91 H91       -72.3430   27.2689  -75.5963 H         1 UNK         0.3141 
     92 H92       -70.0503   28.7010  -77.8919 H         1 UNK         0.0743 
     93 H93       -70.2068   25.7222  -77.1687 H         1 UNK         0.0784 
     94 H94       -69.6465   26.3898  -78.7036 H         1 UNK         0.0784 
     95 H95       -68.7314   26.6763  -77.2337 H         1 UNK         0.0784 
     96 H96       -72.1273   26.8234  -78.3241 H         1 UNK         0.3213 
     97 H97       -74.9243   28.9180  -78.0278 H         1 UNK         0.0855 
     98 H98       -75.2950   28.5239  -80.4377 H         1 UNK         0.0814 
     99 H99       -73.6072   28.0572  -80.6564 H         1 UNK         0.0814 
    100 H100      -74.0206   29.7098  -80.2230 H         1 UNK         0.0814 
    101 H101      -74.9278   26.4292  -79.1981 H         1 UNK         0.3105 
    102 H102      -76.1605   24.8985  -77.8153 H         1 UNK         0.0547 
    103 H103      -74.7062   22.8344  -78.0469 H         1 UNK         0.0837 
    104 H104      -73.2965   23.8110  -77.6413 H         1 UNK         0.0837 
    105 H105      -74.2115   24.1473  -79.0982 H         1 UNK         0.0837 
    106 H106      -76.5568   24.3466  -75.7246 H         1 UNK         0.3020 
    107 H107      -74.7551   22.8301  -73.1072 H         1 UNK         0.1245 
    108 H108      -76.3142   25.4623  -73.2733 H         1 UNK         0.0781 
    109 H109      -74.6920   25.2796  -72.6536 H         1 UNK         0.0781 
    110 H110      -78.4408   24.7976  -70.2542 H         1 UNK         0.0836 
    111 H111      -78.4241   24.8554  -71.9974 H         1 UNK         0.0836 
    112 H112      -77.5605   23.2991  -73.7746 H         1 UNK         0.3022 
    113 H113      -78.0519   19.9698  -75.0022 H         1 UNK         0.0747 
    114 H114      -79.9196   20.2386  -73.3911 H         1 UNK         0.0793 
    115 H115      -78.3882   20.0279  -72.5570 H         1 UNK         0.0793 
    116 H116      -79.1166   21.6216  -72.6515 H         1 UNK         0.0793 
    117 H117      -79.1525   21.2746  -76.3661 H         1 UNK         0.3047 
    118 H118      -79.4938   24.0886  -77.1425 H         1 UNK         0.0822 
    119 H119      -81.4858   22.9599  -78.2470 H         1 UNK         0.0807 
    120 H120      -81.5565   21.8300  -76.9000 H         1 UNK         0.0807 
    121 H121      -80.1464   21.8742  -77.9549 H         1 UNK         0.0807 
    122 H122      -80.9754   25.5288  -76.3814 H         1 UNK         0.2946 
    123 H123      -83.4312   26.1469  -75.8451 H         1 UNK         0.1144 
    124 H124      -83.8660   24.9672  -73.0474 H         1 UNK         0.0793 
    125 H125      -84.9330   24.7656  -74.4311 H         1 UNK         0.0793 
    126 H126      -84.7183   26.3564  -73.7208 H         1 UNK         0.0793 
    127 H127      -82.0256   26.5789  -73.2914 H         1 UNK         0.2896 
@<TRIPOS>BOND
     1    1    2 1    
     2    1   67 1    
     3    1   68 1    
     4    1   69 1    
     5    2    3 2    
     6    2    4 am   BACKBONE|DICT|INTERRES
     7    4    5 1    
     8    4   70 1    
     9    5    6 1    
    10    5   65 1    
    11    5   71 1    
    12    6    7 1    
    13    6   72 1    
    14    6   73 1    
    15    7    8 1    
    16    8    9 1    
    17    8   74 1    
    18    8   75 1    
    19    9   10 ar   
    20    9   14 ar   
    21   10   11 ar   
    22   10   76 1    
    23   11   12 ar   
    24   11   48 1    
    25   12   13 ar   
    26   12   77 1    
    27   13   14 ar   
    28   13   15 1    
    29   14   78 1    
    30   15   16 1    
    31   15   79 1    
    32   15   80 1    
    33   16   17 1    
    34   17   18 1    
    35   17   81 1    
    36   17   82 1    
    37   18   19 1    
    38   18   22 1    
    39   18   83 1    
    40   19   20 am   BACKBONE|DICT|INTERRES
    41   19   21 2    
    42   20   84 1    
    43   20   85 1    
    44   22   23 am   BACKBONE|DICT|INTERRES
    45   22   86 1    
    46   23   24 2    
    47   23   25 1    
    48   25   26 1    
    49   25   27 1    
    50   25   87 1    
    51   26   88 1    
    52   26   89 1    
    53   26   90 1    
    54   27   28 am   BACKBONE|DICT|INTERRES
    55   27   91 1    
    56   28   29 2    
    57   28   30 1    
    58   30   31 1    
    59   30   32 1    
    60   30   92 1    
    61   31   93 1    
    62   31   94 1    
    63   31   95 1    
    64   32   33 am   BACKBONE|DICT|INTERRES
    65   32   96 1    
    66   33   34 2    
    67   33   35 1    
    68   35   36 1    
    69   35   37 1    
    70   35   97 1    
    71   36   98 1    
    72   36   99 1    
    73   36  100 1    
    74   37   38 am   BACKBONE|DICT|INTERRES
    75   37  101 1    
    76   38   39 2    
    77   38   40 1    
    78   40   41 1    
    79   40   42 1    
    80   40  102 1    
    81   41  103 1    
    82   41  104 1    
    83   41  105 1    
    84   42   43 am   BACKBONE|DICT|INTERRES
    85   42  106 1    
    86   43   44 2    
    87   43   45 1    
    88   45   46 1    
    89   45   49 1    
    90   45  107 1    
    91   46   47 1    
    92   46  108 1    
    93   46  109 1    
    94   47   48 1    
    95   48  110 1    
    96   48  111 1    
    97   49   50 am   BACKBONE|DICT|INTERRES
    98   49  112 1    
    99   50   51 2    
   100   50   52 1    
   101   52   53 1    
   102   52   54 1    
   103   52  113 1    
   104   53  114 1    
   105   53  115 1    
   106   53  116 1    
   107   54   55 am   BACKBONE|DICT|INTERRES
   108   54  117 1    
   109   55   56 2    
   110   55   57 1    
   111   57   58 1    
   112   57   59 1    
   113   57  118 1    
   114   58  119 1    
   115   58  120 1    
   116   58  121 1    
   117   59   60 am   BACKBONE|DICT|INTERRES
   118   59  122 1    
   119   60   61 2    
   120   60   62 1    
   121   62   63 1    
   122   62   64 1    
   123   62  123 1    
   124   63  124 1    
   125   63  125 1    
   126   63  126 1    
   127   64   65 am   BACKBONE|DICT|INTERRES
   128   64  127 1    
   129   65   66 2    
@<TRIPOS>SUBSTRUCTURE
     1 UNK         1 GROUP             0       ****    0 ROOT    
