@<TRIPOS>MOLECULE
3R135
127   129    1
SMALL
USER_CHARGES


@<TRIPOS>ATOM
      1 CA        -79.5456   21.2513  -77.3256 C.3       0 UNK        -0.1998 
      2 C         -80.2106   21.2174  -75.9582 C.2       0 UNK         0.4909 
      3 O         -81.2180   20.5331  -75.7808 O.2       0 UNK        -0.5240 
      4 N         -79.6671   21.9652  -74.9902 N.am      1 UNK        -0.4739 
      5 CA        -80.1116   22.0588  -73.5918 C.3       1 UNK         0.0864 
      6 C6        -78.9404   22.5052  -72.6760 C.3       11 UNK        -0.0881 
      7 S7        -78.1983   24.1149  -73.1360 S.3       11 UNK        -0.2682 
      8 C8        -78.4147   25.0381  -71.5843 C.3       11 UNK         0.0289 
      9 C9        -77.7310   26.3960  -71.6309 C.ar      11 UNK        -0.0687 
     10 C10       -78.4850   27.5694  -71.7254 C.ar      11 UNK        -0.0823 
     11 C11       -77.8557   28.8187  -71.7240 C.ar      11 UNK        -0.0830 
     12 C12       -76.4643   28.8899  -71.6089 C.ar      11 UNK        -0.1021 
     13 C13       -75.6987   27.7225  -71.5422 C.ar      11 UNK        -0.0753 
     14 C14       -76.3379   26.4794  -71.5500 C.ar      11 UNK        -0.0933 
     15 C15       -74.1823   27.7980  -71.4662 C.3       11 UNK         0.0166 
     16 S16       -73.4574   28.0971  -73.1068 S.3       11 UNK        -0.2615 
     17 C17       -73.1802   29.9018  -73.0490 C.3       11 UNK        -0.0865 
     18 CA        -72.5600   30.4363  -74.3615 C.3       10 UNK         0.0862 
     19 C         -72.4843   31.9833  -74.3695 C.2       10 UNK         0.5551 
     20 N         -73.4947   32.6380  -74.9250 N.am      10 UNK        -0.7319 
     21 O         -71.5514   32.5842  -73.8404 O.2       10 UNK        -0.5018 
     22 N         -71.2891   29.7755  -74.6672 N.am      10 UNK        -0.4509 
     23 C         -70.6377   29.8210  -75.8333 C.2       10 UNK         0.4899 
     24 O         -70.9605   30.5423  -76.7769 O.2       10 UNK        -0.4839 
     25 CA        -69.4700   28.8327  -76.0117 C.3       9 UNK         0.0222 
     26 CB        -68.1497   29.4050  -75.4587 C.3       9 UNK        -0.1966 
     27 N         -69.7671   27.4872  -75.4895 N.am      9 UNK        -0.4218 
     28 C         -69.8945   27.0903  -74.2138 C.2       9 UNK         0.5020 
     29 O         -69.6947   27.8214  -73.2422 O.2       9 UNK        -0.5274 
     30 CA        -70.4391   25.6719  -74.0084 C.3       8 UNK         0.0270 
     31 CB        -70.5581   25.2778  -72.5234 C.3       8 UNK        -0.1976 
     32 N         -71.7590   25.5998  -74.6330 N.am      8 UNK        -0.4313 
     33 C         -72.1609   24.6536  -75.4865 C.2       8 UNK         0.5041 
     34 O         -71.4682   23.6907  -75.8195 O.2       8 UNK        -0.5577 
     35 CA        -73.5728   24.8011  -76.0805 C.3       7 UNK         0.0284 
     36 CB        -74.6025   24.0824  -75.1915 C.3       7 UNK        -0.1958 
     37 N         -74.0222   26.1802  -76.3061 N.am      7 UNK        -0.4454 
     38 C         -73.4312   27.0868  -77.1060 C.2       7 UNK         0.5089 
     39 O         -72.3409   26.9028  -77.6478 O.2       7 UNK        -0.5125 
     40 CA        -74.1803   28.4090  -77.3791 C.3       6 UNK         0.0408 
     41 CB        -74.5193   28.5541  -78.8722 C.3       6 UNK        -0.1791 
     42 N         -75.4128   28.4939  -76.5994 N.am      6 UNK        -0.4762 
     43 C         -75.9468   29.5558  -75.9911 C.2       6 UNK         0.5007 
     44 O         -75.4967   30.6998  -76.0858 O.2       6 UNK        -0.5032 
     45 CA        -77.1955   29.2715  -75.1195 C.3       5 UNK         0.0783 
     46 C46       -77.8327   30.5680  -74.5463 C.3       11 UNK        -0.0857 
     47 S47       -79.3400   30.2777  -73.5511 S.3       11 UNK        -0.2512 
     48 C48       -78.6778   30.0908  -71.8647 C.3       11 UNK         0.0225 
     49 N         -78.1855   28.4017  -75.7731 N.am      5 UNK        -0.4615 
     50 C         -78.0667   27.0859  -75.9904 C.2       4 UNK         0.5053 
     51 O         -77.0324   26.4518  -75.7694 O.2       4 UNK        -0.5105 
     52 CA        -79.3146   26.3687  -76.5276 C.3       4 UNK         0.0263 
     53 CB        -79.0231   24.9215  -76.9626 C.3       4 UNK        -0.1981 
     54 N         -80.3575   26.3606  -75.5030 N.am      4 UNK        -0.4224 
     55 C         -81.2176   27.3633  -75.2778 C.2       3 UNK         0.4895 
     56 O         -81.2452   28.3940  -75.9536 O.2       3 UNK        -0.5091 
     57 CA        -82.1888   27.1849  -74.0930 C.3       3 UNK         0.0250 
     58 CB        -83.3842   28.1600  -74.1419 C.3       3 UNK        -0.1996 
     59 N         -82.6446   25.7980  -73.9270 N.am      3 UNK        -0.4254 
     60 C         -83.3353   25.0528  -74.8030 C.2       2 UNK         0.5004 
     61 O         -83.7271   25.4586  -75.8987 O.2       2 UNK        -0.5226 
     62 CA        -83.5880   23.5899  -74.3880 C.3       2 UNK         0.0269 
     63 CB        -84.5744   22.8700  -75.3266 C.3       2 UNK        -0.1926 
     64 N         -82.3393   22.8243  -74.3457 N.am      2 UNK        -0.4687 
     65 C         -81.3992   22.9003  -73.3954 C.2       1 UNK         0.5165 
     66 O         -81.5253   23.6191  -72.4015 O.2       1 UNK        -0.5079 
     67 H67       -80.2226   21.6841  -78.0614 H         1 UNK         0.0900 
     68 H68       -79.2955   20.2402  -77.6456 H         1 UNK         0.0900 
     69 H69       -78.6282   21.8395  -77.3191 H         1 UNK         0.0900 
     70 H70       -78.8490   22.5197  -75.1988 H         1 UNK         0.2959 
     71 H71       -80.3883   21.0506  -73.2751 H         1 UNK         0.1079 
     72 H72       -79.2558   22.5184  -71.6309 H         1 UNK         0.0837 
     73 H73       -78.1464   21.7581  -72.7206 H         1 UNK         0.0837 
     74 H74       -77.9986   24.4591  -70.7585 H         1 UNK         0.0685 
     75 H75       -79.4802   25.1500  -71.3782 H         1 UNK         0.0685 
     76 H76       -79.5617   27.5138  -71.8019 H         1 UNK         0.1434 
     77 H77       -75.9758   29.8535  -71.5976 H         1 UNK         0.1329 
     78 H78       -75.7530   25.5716  -71.4925 H         1 UNK         0.1335 
     79 H79       -73.7776   26.8633  -71.0750 H         1 UNK         0.0680 
     80 H80       -73.8776   28.5761  -70.7647 H         1 UNK         0.0680 
     81 H81       -72.5366   30.1381  -72.1993 H         1 UNK         0.1032 
     82 H82       -74.1362   30.3920  -72.8618 H         1 UNK         0.1032 
     83 H83       -73.2298   30.1467  -75.1634 H         1 UNK         0.0461 
     84 H84       -73.4900   33.6456  -74.9363 H         1 UNK         0.3453 
     85 H85       -74.2528   32.1263  -75.3653 H         1 UNK         0.3453 
     86 H86       -70.9101   29.1724  -73.9440 H         1 UNK         0.2984 
     87 H87       -69.3380   28.6984  -77.0866 H         1 UNK         0.0554 
     88 H88       -67.3222   28.7119  -75.6091 H         1 UNK         0.0847 
     89 H89       -68.2110   29.6299  -74.3938 H         1 UNK         0.0847 
     90 H90       -67.8908   30.3347  -75.9668 H         1 UNK         0.0847 
     91 H91       -70.0343   26.8168  -76.1993 H         1 UNK         0.3141 
     92 H92       -69.7393   24.9876  -74.4927 H         1 UNK         0.0743 
     93 H93       -70.9225   24.2563  -72.4147 H         1 UNK         0.0784 
     94 H94       -69.5891   25.3323  -72.0256 H         1 UNK         0.0784 
     95 H95       -71.2416   25.9355  -71.9845 H         1 UNK         0.0784 
     96 H96       -72.3920   26.3633  -74.4252 H         1 UNK         0.3213 
     97 H97       -73.5615   24.3063  -77.0539 H         1 UNK         0.0855 
     98 H98       -74.7139   24.5741  -74.2239 H         1 UNK         0.0814 
     99 H99       -74.3066   23.0496  -75.0019 H         1 UNK         0.0814 
    100 H100      -75.5851   24.0538  -75.6633 H         1 UNK         0.0814 
    101 H101      -74.9143   26.4081  -75.8861 H         1 UNK         0.3105 
    102 H102      -73.5090   29.2220  -77.1070 H         1 UNK         0.0547 
    103 H103      -73.6175   28.5139  -79.4846 H         1 UNK         0.0837 
    104 H104      -75.1832   27.7590  -79.2133 H         1 UNK         0.0837 
    105 H105      -75.0051   29.5082  -79.0762 H         1 UNK         0.0837 
    106 H106      -75.9196   27.6210  -76.4662 H         1 UNK         0.3020 
    107 H107      -76.8086   28.7029  -74.2733 H         1 UNK         0.1245 
    108 H108      -78.1077   31.2401  -75.3613 H         1 UNK         0.0781 
    109 H109      -77.1092   31.1136  -73.9376 H         1 UNK         0.0781 
    110 H110      -79.5100   30.0604  -71.1599 H         1 UNK         0.0836 
    111 H111      -78.0898   30.9722  -71.6039 H         1 UNK         0.0836 
    112 H112      -79.0880   28.8251  -75.9550 H         1 UNK         0.3022 
    113 H113      -79.6664   26.9155  -77.4052 H         1 UNK         0.0747 
    114 H114      -79.9246   24.4248  -77.3217 H         1 UNK         0.0793 
    115 H115      -78.2938   24.9000  -77.7734 H         1 UNK         0.0793 
    116 H116      -78.6127   24.3309  -76.1446 H         1 UNK         0.0793 
    117 H117      -80.3653   25.5701  -74.8756 H         1 UNK         0.3047 
    118 H118      -81.6119   27.4241  -73.1988 H         1 UNK         0.0822 
    119 H119      -83.0427   29.1960  -74.1271 H         1 UNK         0.0807 
    120 H120      -84.0422   28.0253  -73.2836 H         1 UNK         0.0807 
    121 H121      -83.9789   28.0275  -75.0462 H         1 UNK         0.0807 
    122 H122      -82.3231   25.3234  -73.0879 H         1 UNK         0.2946 
    123 H123      -84.0288   23.6050  -73.3883 H         1 UNK         0.1144 
    124 H124      -85.5247   23.4033  -75.3785 H         1 UNK         0.0793 
    125 H125      -84.7896   21.8604  -74.9761 H         1 UNK         0.0793 
    126 H126      -84.1851   22.7952  -76.3429 H         1 UNK         0.0793 
    127 H127      -82.1675   22.1819  -75.1118 H         1 UNK         0.2896 
@<TRIPOS>BOND
     1    1    2 1    
     2    1   67 1    
     3    1   68 1    
     4    1   69 1    
     5    2    3 2    
     6    2    4 am   BACKBONE|DICT|INTERRES
     7    4    5 1    
     8    4   70 1    
     9    5    6 1    
    10    5   65 1    
    11    5   71 1    
    12    6    7 1    
    13    6   72 1    
    14    6   73 1    
    15    7    8 1    
    16    8    9 1    
    17    8   74 1    
    18    8   75 1    
    19    9   10 ar   
    20    9   14 ar   
    21   10   11 ar   
    22   10   76 1    
    23   11   12 ar   
    24   11   48 1    
    25   12   13 ar   
    26   12   77 1    
    27   13   14 ar   
    28   13   15 1    
    29   14   78 1    
    30   15   16 1    
    31   15   79 1    
    32   15   80 1    
    33   16   17 1    
    34   17   18 1    
    35   17   81 1    
    36   17   82 1    
    37   18   19 1    
    38   18   22 1    
    39   18   83 1    
    40   19   20 am   BACKBONE|DICT|INTERRES
    41   19   21 2    
    42   20   84 1    
    43   20   85 1    
    44   22   23 am   BACKBONE|DICT|INTERRES
    45   22   86 1    
    46   23   24 2    
    47   23   25 1    
    48   25   26 1    
    49   25   27 1    
    50   25   87 1    
    51   26   88 1    
    52   26   89 1    
    53   26   90 1    
    54   27   28 am   BACKBONE|DICT|INTERRES
    55   27   91 1    
    56   28   29 2    
    57   28   30 1    
    58   30   31 1    
    59   30   32 1    
    60   30   92 1    
    61   31   93 1    
    62   31   94 1    
    63   31   95 1    
    64   32   33 am   BACKBONE|DICT|INTERRES
    65   32   96 1    
    66   33   34 2    
    67   33   35 1    
    68   35   36 1    
    69   35   37 1    
    70   35   97 1    
    71   36   98 1    
    72   36   99 1    
    73   36  100 1    
    74   37   38 am   BACKBONE|DICT|INTERRES
    75   37  101 1    
    76   38   39 2    
    77   38   40 1    
    78   40   41 1    
    79   40   42 1    
    80   40  102 1    
    81   41  103 1    
    82   41  104 1    
    83   41  105 1    
    84   42   43 am   BACKBONE|DICT|INTERRES
    85   42  106 1    
    86   43   44 2    
    87   43   45 1    
    88   45   46 1    
    89   45   49 1    
    90   45  107 1    
    91   46   47 1    
    92   46  108 1    
    93   46  109 1    
    94   47   48 1    
    95   48  110 1    
    96   48  111 1    
    97   49   50 am   BACKBONE|DICT|INTERRES
    98   49  112 1    
    99   50   51 2    
   100   50   52 1    
   101   52   53 1    
   102   52   54 1    
   103   52  113 1    
   104   53  114 1    
   105   53  115 1    
   106   53  116 1    
   107   54   55 am   BACKBONE|DICT|INTERRES
   108   54  117 1    
   109   55   56 2    
   110   55   57 1    
   111   57   58 1    
   112   57   59 1    
   113   57  118 1    
   114   58  119 1    
   115   58  120 1    
   116   58  121 1    
   117   59   60 am   BACKBONE|DICT|INTERRES
   118   59  122 1    
   119   60   61 2    
   120   60   62 1    
   121   62   63 1    
   122   62   64 1    
   123   62  123 1    
   124   63  124 1    
   125   63  125 1    
   126   63  126 1    
   127   64   65 am   BACKBONE|DICT|INTERRES
   128   64  127 1    
   129   65   66 2    
@<TRIPOS>SUBSTRUCTURE
     1 UNK         1 GROUP             0       ****    0 ROOT    
