@<TRIPOS>MOLECULE
3R135
127   129    1
SMALL
USER_CHARGES


@<TRIPOS>ATOM
      1 CA        -78.5549   31.2752  -75.2714 C.3       0 UNK        -0.1998 
      2 C         -78.9331   29.8897  -74.7696 C.2       0 UNK         0.4909 
      3 O         -78.1796   28.9385  -74.9699 O.2       0 UNK        -0.5240 
      4 N         -80.0990   29.7680  -74.1226 N.am      1 UNK        -0.4739 
      5 CA        -80.6502   28.5024  -73.6247 C.3       1 UNK         0.0864 
      6 C6        -81.8902   28.7102  -72.7096 C.3       11 UNK        -0.0881 
      7 S7        -81.7527   30.0854  -71.5130 S.3       11 UNK        -0.2682 
      8 C8        -81.0842   29.2680  -70.0293 C.3       11 UNK         0.0289 
      9 C9        -79.5957   28.9729  -70.1544 C.ar      11 UNK        -0.0687 
     10 C10       -79.1246   27.6601  -70.0480 C.ar      11 UNK        -0.0823 
     11 C11       -77.7574   27.3883  -70.1603 C.ar      11 UNK        -0.0830 
     12 C12       -76.8606   28.4399  -70.3619 C.ar      11 UNK        -0.1021 
     13 C13       -77.3188   29.7526  -70.4811 C.ar      11 UNK        -0.0753 
     14 C14       -78.6862   30.0161  -70.3664 C.ar      11 UNK        -0.0933 
     15 C15       -76.3277   30.8714  -70.7526 C.3       11 UNK         0.0166 
     16 S16       -75.9493   30.9749  -72.5314 S.3       11 UNK        -0.2615 
     17 C17       -74.1584   31.3375  -72.5142 C.3       11 UNK        -0.0865 
     18 CA        -73.2666   30.1295  -72.9151 C.3       10 UNK         0.0862 
     19 C         -73.3141   28.9540  -71.8992 C.2       10 UNK         0.5551 
     20 N         -73.6226   27.7265  -72.3047 N.am      10 UNK        -0.7319 
     21 O         -73.0351   29.1547  -70.7197 O.2       10 UNK        -0.5018 
     22 N         -73.4495   29.7163  -74.3147 N.am      10 UNK        -0.4509 
     23 C         -72.8375   30.2805  -75.3606 C.2       10 UNK         0.4899 
     24 O         -72.1448   31.2975  -75.2877 O.2       10 UNK        -0.4839 
     25 CA        -73.0045   29.5480  -76.7041 C.3       9 UNK         0.0222 
     26 CB        -72.2348   30.2123  -77.8647 C.3       9 UNK        -0.1966 
     27 N         -72.6590   28.1260  -76.5914 N.am      9 UNK        -0.4218 
     28 C         -71.4878   27.5791  -76.2279 C.2       9 UNK         0.5020 
     29 O         -70.4673   28.2246  -75.9849 O.2       9 UNK        -0.5274 
     30 CA        -71.4423   26.0435  -76.0956 C.3       8 UNK         0.0270 
     31 CB        -71.5092   25.6314  -74.6161 C.3       8 UNK        -0.1976 
     32 N         -72.5137   25.3633  -76.8294 N.am      8 UNK        -0.4313 
     33 C         -72.5544   25.2336  -78.1636 C.2       8 UNK         0.5041 
     34 O         -71.6414   25.5787  -78.9146 O.2       8 UNK        -0.5577 
     35 CA        -73.8511   24.6628  -78.7641 C.3       7 UNK         0.0284 
     36 CB        -73.8633   23.1289  -78.6788 C.3       7 UNK        -0.1958 
     37 N         -75.0508   25.2087  -78.1220 N.am      7 UNK        -0.4454 
     38 C         -75.4146   26.4996  -78.1615 C.2       7 UNK         0.5089 
     39 O         -74.8213   27.3597  -78.8104 O.2       7 UNK        -0.5125 
     40 CA        -76.6096   26.9166  -77.2945 C.3       6 UNK         0.0408 
     41 CB        -77.9340   26.7317  -78.0509 C.3       6 UNK        -0.1791 
     42 N         -76.6596   26.1749  -76.0380 N.am      6 UNK        -0.4762 
     43 C         -75.8669   26.3881  -74.9777 C.2       6 UNK         0.5007 
     44 O         -74.9640   27.2275  -74.9282 O.2       6 UNK        -0.5032 
     45 CA        -76.1196   25.4666  -73.7712 C.3       5 UNK         0.0783 
     46 C46       -77.3283   26.0020  -72.9714 C.3       11 UNK        -0.0857 
     47 S47       -77.7934   24.9683  -71.5377 S.3       11 UNK        -0.2512 
     48 C48       -77.2400   25.9579  -70.1098 C.3       11 UNK         0.0225 
     49 N         -76.2860   24.0720  -74.1920 N.am      5 UNK        -0.4615 
     50 C         -75.3299   23.3408  -74.7831 C.2       4 UNK         0.5053 
     51 O         -74.1997   23.7631  -75.0280 O.2       4 UNK        -0.5105 
     52 CA        -75.7021   21.9128  -75.2164 C.3       4 UNK         0.0263 
     53 CB        -75.4189   20.9195  -74.0789 C.3       4 UNK        -0.1981 
     54 N         -77.0924   21.7676  -75.6550 N.am      4 UNK        -0.4224 
     55 C         -77.6708   22.4498  -76.6537 C.2       3 UNK         0.4895 
     56 O         -77.0868   23.2962  -77.3328 O.2       3 UNK        -0.5091 
     57 CA        -79.1603   22.1691  -76.9317 C.3       3 UNK         0.0250 
     58 CB        -79.7482   20.9912  -76.1195 C.3       3 UNK        -0.1996 
     59 N         -79.9895   23.3671  -76.7520 N.am      3 UNK        -0.4254 
     60 C         -80.0684   24.1360  -75.6557 C.2       2 UNK         0.5004 
     61 O         -79.4039   23.9601  -74.6313 O.2       2 UNK        -0.5226 
     62 CA        -81.0866   25.2793  -75.7113 C.3       2 UNK         0.0269 
     63 CB        -82.5178   24.7513  -75.5003 C.3       2 UNK        -0.1926 
     64 N         -80.7794   26.2730  -74.6827 N.am      2 UNK        -0.4687 
     65 C         -81.0250   27.5818  -74.8087 C.2       1 UNK         0.5165 
     66 O         -81.5686   28.0722  -75.8031 O.2       1 UNK        -0.5079 
     67 H67       -77.5094   31.4868  -75.0405 H         1 UNK         0.0900 
     68 H68       -78.6819   31.3276  -76.3550 H         1 UNK         0.0900 
     69 H69       -79.1683   32.0545  -74.8129 H         1 UNK         0.0900 
     70 H70       -80.6851   30.5783  -73.9822 H         1 UNK         0.2959 
     71 H71       -79.8654   28.0187  -73.0386 H         1 UNK         0.1079 
     72 H72       -82.1193   27.7880  -72.1725 H         1 UNK         0.0837 
     73 H73       -82.7746   28.9262  -73.3133 H         1 UNK         0.0837 
     74 H74       -81.6548   28.3608  -69.8241 H         1 UNK         0.0685 
     75 H75       -81.2363   29.9251  -69.1720 H         1 UNK         0.0685 
     76 H76       -79.8190   26.8451  -69.8950 H         1 UNK         0.1434 
     77 H77       -75.8036   28.2357  -70.4595 H         1 UNK         0.1329 
     78 H78       -79.0472   31.0313  -70.4591 H         1 UNK         0.1335 
     79 H79       -75.4199   30.6882  -70.1761 H         1 UNK         0.0680 
     80 H80       -76.7215   31.8300  -70.4116 H         1 UNK         0.0680 
     81 H81       -73.8621   31.7193  -71.5358 H         1 UNK         0.1032 
     82 H82       -73.9803   32.1635  -73.2041 H         1 UNK         0.1032 
     83 H83       -72.2339   30.4750  -72.8330 H         1 UNK         0.0461 
     84 H84       -73.8907   27.5411  -73.2614 H         1 UNK         0.3453 
     85 H85       -73.6052   26.9811  -71.6282 H         1 UNK         0.3453 
     86 H86       -74.0299   28.8986  -74.4721 H         1 UNK         0.2984 
     87 H87       -74.0675   29.5861  -76.9477 H         1 UNK         0.0554 
     88 H88       -72.5620   31.2425  -78.0096 H         1 UNK         0.0847 
     89 H89       -72.4037   29.6831  -78.8027 H         1 UNK         0.0847 
     90 H90       -71.1602   30.2354  -77.6808 H         1 UNK         0.0847 
     91 H91       -73.4337   27.4911  -76.7271 H         1 UNK         0.3141 
     92 H92       -70.4835   25.7099  -76.4983 H         1 UNK         0.0743 
     93 H93       -70.7289   26.1231  -74.0335 H         1 UNK         0.0784 
     94 H94       -72.4675   25.8953  -74.1688 H         1 UNK         0.0784 
     95 H95       -71.3736   24.5561  -74.4987 H         1 UNK         0.0784 
     96 H96       -73.2694   24.9708  -76.2728 H         1 UNK         0.3213 
     97 H97       -73.8840   24.9459  -79.8185 H         1 UNK         0.0855 
     98 H98       -73.7777   22.7820  -77.6496 H         1 UNK         0.0814 
     99 H99       -73.0265   22.7035  -79.2341 H         1 UNK         0.0814 
    100 H100      -74.7788   22.7126  -79.0998 H         1 UNK         0.0814 
    101 H101      -75.6522   24.5536  -77.6284 H         1 UNK         0.3105 
    102 H102      -76.4984   27.9775  -77.0594 H         1 UNK         0.0547 
    103 H103      -78.7761   27.0966  -77.4620 H         1 UNK         0.0837 
    104 H104      -78.1204   25.6856  -78.2965 H         1 UNK         0.0837 
    105 H105      -77.9281   27.2913  -78.9871 H         1 UNK         0.0837 
    106 H106      -77.3242   25.4155  -75.9865 H         1 UNK         0.3020 
    107 H107      -75.2373   25.5089  -73.1302 H         1 UNK         0.1245 
    108 H108      -78.2058   26.0689  -73.6133 H         1 UNK         0.0781 
    109 H109      -77.1319   27.0273  -72.6594 H         1 UNK         0.0781 
    110 H110      -76.1496   25.9394  -70.0724 H         1 UNK         0.0836 
    111 H111      -77.5853   25.4812  -69.1914 H         1 UNK         0.0836 
    112 H112      -77.2084   23.6745  -74.0591 H         1 UNK         0.3022 
    113 H113      -75.0663   21.6487  -76.0625 H         1 UNK         0.0747 
    114 H114      -75.5849   19.8904  -74.3984 H         1 UNK         0.0793 
    115 H115      -74.3813   20.9905  -73.7489 H         1 UNK         0.0793 
    116 H116      -76.0507   21.1090  -73.2100 H         1 UNK         0.0793 
    117 H117      -77.6627   21.1136  -75.1390 H         1 UNK         0.3047 
    118 H118      -79.2210   21.9039  -77.9884 H         1 UNK         0.0822 
    119 H119      -80.7790   20.7942  -76.4144 H         1 UNK         0.0807 
    120 H120      -79.7503   21.1879  -75.0465 H         1 UNK         0.0807 
    121 H121      -79.1908   20.0696  -76.2933 H         1 UNK         0.0807 
    122 H122      -80.5599   23.6144  -77.5487 H         1 UNK         0.2946 
    123 H123      -81.0114   25.7400  -76.6995 H         1 UNK         0.1144 
    124 H124      -82.6315   24.2810  -74.5226 H         1 UNK         0.0793 
    125 H125      -82.7813   24.0074  -76.2532 H         1 UNK         0.0793 
    126 H126      -83.2518   25.5542  -75.5722 H         1 UNK         0.0793 
    127 H127      -80.2986   25.9058  -73.8709 H         1 UNK         0.2896 
@<TRIPOS>BOND
     1    1    2 1    
     2    1   67 1    
     3    1   68 1    
     4    1   69 1    
     5    2    3 2    
     6    2    4 am   BACKBONE|DICT|INTERRES
     7    4    5 1    
     8    4   70 1    
     9    5    6 1    
    10    5   65 1    
    11    5   71 1    
    12    6    7 1    
    13    6   72 1    
    14    6   73 1    
    15    7    8 1    
    16    8    9 1    
    17    8   74 1    
    18    8   75 1    
    19    9   10 ar   
    20    9   14 ar   
    21   10   11 ar   
    22   10   76 1    
    23   11   12 ar   
    24   11   48 1    
    25   12   13 ar   
    26   12   77 1    
    27   13   14 ar   
    28   13   15 1    
    29   14   78 1    
    30   15   16 1    
    31   15   79 1    
    32   15   80 1    
    33   16   17 1    
    34   17   18 1    
    35   17   81 1    
    36   17   82 1    
    37   18   19 1    
    38   18   22 1    
    39   18   83 1    
    40   19   20 am   BACKBONE|DICT|INTERRES
    41   19   21 2    
    42   20   84 1    
    43   20   85 1    
    44   22   23 am   BACKBONE|DICT|INTERRES
    45   22   86 1    
    46   23   24 2    
    47   23   25 1    
    48   25   26 1    
    49   25   27 1    
    50   25   87 1    
    51   26   88 1    
    52   26   89 1    
    53   26   90 1    
    54   27   28 am   BACKBONE|DICT|INTERRES
    55   27   91 1    
    56   28   29 2    
    57   28   30 1    
    58   30   31 1    
    59   30   32 1    
    60   30   92 1    
    61   31   93 1    
    62   31   94 1    
    63   31   95 1    
    64   32   33 am   BACKBONE|DICT|INTERRES
    65   32   96 1    
    66   33   34 2    
    67   33   35 1    
    68   35   36 1    
    69   35   37 1    
    70   35   97 1    
    71   36   98 1    
    72   36   99 1    
    73   36  100 1    
    74   37   38 am   BACKBONE|DICT|INTERRES
    75   37  101 1    
    76   38   39 2    
    77   38   40 1    
    78   40   41 1    
    79   40   42 1    
    80   40  102 1    
    81   41  103 1    
    82   41  104 1    
    83   41  105 1    
    84   42   43 am   BACKBONE|DICT|INTERRES
    85   42  106 1    
    86   43   44 2    
    87   43   45 1    
    88   45   46 1    
    89   45   49 1    
    90   45  107 1    
    91   46   47 1    
    92   46  108 1    
    93   46  109 1    
    94   47   48 1    
    95   48  110 1    
    96   48  111 1    
    97   49   50 am   BACKBONE|DICT|INTERRES
    98   49  112 1    
    99   50   51 2    
   100   50   52 1    
   101   52   53 1    
   102   52   54 1    
   103   52  113 1    
   104   53  114 1    
   105   53  115 1    
   106   53  116 1    
   107   54   55 am   BACKBONE|DICT|INTERRES
   108   54  117 1    
   109   55   56 2    
   110   55   57 1    
   111   57   58 1    
   112   57   59 1    
   113   57  118 1    
   114   58  119 1    
   115   58  120 1    
   116   58  121 1    
   117   59   60 am   BACKBONE|DICT|INTERRES
   118   59  122 1    
   119   60   61 2    
   120   60   62 1    
   121   62   63 1    
   122   62   64 1    
   123   62  123 1    
   124   63  124 1    
   125   63  125 1    
   126   63  126 1    
   127   64   65 am   BACKBONE|DICT|INTERRES
   128   64  127 1    
   129   65   66 2    
@<TRIPOS>SUBSTRUCTURE
     1 UNK         1 GROUP             0       ****    0 ROOT    
