@<TRIPOS>MOLECULE
3R135
127   129    1
SMALL
USER_CHARGES


@<TRIPOS>ATOM
      1 CA        -82.7029   26.5221  -72.1224 C.3       0 UNK        -0.1998 
      2 C         -82.0194   27.0362  -73.3798 C.2       0 UNK         0.4909 
      3 O         -80.9942   26.4870  -73.7757 O.2       0 UNK        -0.5240 
      4 N         -82.5989   28.0655  -74.0160 N.am      1 UNK        -0.4739 
      5 CA        -82.1196   28.7977  -75.2049 C.3       1 UNK         0.0864 
      6 C6        -81.1171   29.9425  -74.8685 C.3       11 UNK        -0.0881 
      7 S7        -79.4511   29.4174  -74.3363 S.3       11 UNK        -0.2682 
      8 C8        -79.5436   29.6686  -72.5404 C.3       11 UNK         0.0289 
      9 C9        -78.4135   28.9396  -71.8310 C.ar      11 UNK        -0.0687 
     10 C10       -78.6119   27.6444  -71.3441 C.ar      11 UNK        -0.0823 
     11 C11       -77.5879   26.9722  -70.6709 C.ar      11 UNK        -0.0830 
     12 C12       -76.3539   27.6035  -70.4908 C.ar      11 UNK        -0.1021 
     13 C13       -76.1394   28.8941  -70.9849 C.ar      11 UNK        -0.0753 
     14 C14       -77.1729   29.5585  -71.6531 C.ar      11 UNK        -0.0933 
     15 C15       -74.7900   29.5677  -70.7974 C.3       11 UNK         0.0166 
     16 S16       -73.5717   28.8899  -71.9590 S.3       11 UNK        -0.2615 
     17 C17       -72.1661   30.0292  -71.7122 C.3       11 UNK        -0.0865 
     18 CA        -72.0603   31.1184  -72.8143 C.3       10 UNK         0.0862 
     19 C         -70.7992   31.9998  -72.5781 C.2       10 UNK         0.5551 
     20 N         -69.7575   31.8976  -73.3950 N.am      10 UNK        -0.7319 
     21 O         -70.7689   32.7848  -71.6340 O.2       10 UNK        -0.5018 
     22 N         -72.1679   30.5280  -74.1562 N.am      10 UNK        -0.4509 
     23 C         -72.3137   31.1816  -75.3145 C.2       10 UNK         0.4899 
     24 O         -72.3901   32.4077  -75.4008 O.2       10 UNK        -0.4839 
     25 CA        -72.4270   30.3247  -76.5939 C.3       9 UNK         0.0222 
     26 CB        -71.5585   30.8805  -77.7419 C.3       9 UNK        -0.1966 
     27 N         -72.1859   28.8864  -76.3919 N.am      9 UNK        -0.4218 
     28 C         -71.0407   28.2846  -76.0235 C.2       9 UNK         0.5020 
     29 O         -69.9886   28.8901  -75.8157 O.2       9 UNK        -0.5274 
     30 CA        -71.0710   26.7603  -75.7916 C.3       8 UNK         0.0270 
     31 CB        -70.9843   26.4488  -74.2878 C.3       8 UNK        -0.1976 
     32 N         -72.2619   26.1093  -76.3410 N.am      8 UNK        -0.4313 
     33 C         -72.4793   25.8976  -77.6471 C.2       8 UNK         0.5041 
     34 O         -71.6467   26.1372  -78.5224 O.2       8 UNK        -0.5577 
     35 CA        -73.8610   25.3544  -78.0593 C.3       7 UNK         0.0284 
     36 CB        -73.7691   23.8598  -78.4053 C.3       7 UNK        -0.1958 
     37 N         -74.9127   25.5534  -77.0560 N.am      7 UNK        -0.4454 
     38 C         -75.3569   26.7408  -76.6149 C.2       7 UNK         0.5089 
     39 O         -74.9113   27.8216  -77.0018 O.2       7 UNK        -0.5125 
     40 CA        -76.4491   26.7188  -75.5316 C.3       6 UNK         0.0408 
     41 CB        -77.8313   26.8911  -76.1796 C.3       6 UNK        -0.1791 
     42 N         -76.4344   25.4971  -74.7187 N.am      6 UNK        -0.4762 
     43 C         -75.4386   25.1479  -73.8872 C.2       6 UNK         0.5007 
     44 O         -74.4082   25.8090  -73.7562 O.2       6 UNK        -0.5032 
     45 CA        -75.5688   23.8166  -73.1153 C.3       5 UNK         0.0783 
     46 C46       -75.9996   24.0335  -71.6412 C.3       11 UNK        -0.0857 
     47 S47       -77.7936   24.3084  -71.4207 S.3       11 UNK        -0.2512 
     48 C48       -77.8330   25.5767  -70.1175 C.3       11 UNK         0.0225 
     49 N         -76.4145   22.8305  -73.7945 N.am      5 UNK        -0.4615 
     50 C         -76.1216   22.2234  -74.9505 C.2       4 UNK         0.5053 
     51 O         -75.0600   22.3815  -75.5518 O.2       4 UNK        -0.5105 
     52 CA        -77.2073   21.3124  -75.5564 C.3       4 UNK         0.0263 
     53 CB        -76.9799   19.8537  -75.1291 C.3       4 UNK        -0.1981 
     54 N         -78.5873   21.7051  -75.2326 N.am      4 UNK        -0.4224 
     55 C         -79.1328   22.8941  -75.5266 C.2       3 UNK         0.4895 
     56 O         -78.5061   23.8086  -76.0630 O.2       3 UNK        -0.5091 
     57 CA        -80.6023   23.1012  -75.1191 C.3       3 UNK         0.0250 
     58 CB        -80.7343   23.2232  -73.5921 C.3       3 UNK        -0.1996 
     59 N         -81.1653   24.3031  -75.7439 N.am      3 UNK        -0.4254 
     60 C         -81.5595   24.3696  -77.0249 C.2       2 UNK         0.5004 
     61 O         -81.5736   23.3911  -77.7746 O.2       2 UNK        -0.5226 
     62 CA        -82.0266   25.7321  -77.5736 C.3       2 UNK         0.0269 
     63 CB        -83.3013   25.5966  -78.4281 C.3       2 UNK        -0.1926 
     64 N         -82.2751   26.7087  -76.5103 N.am      2 UNK        -0.4687 
     65 C         -81.7223   27.9269  -76.4269 C.2       1 UNK         0.5165 
     66 O         -80.9653   28.3826  -77.2862 O.2       1 UNK        -0.5079 
     67 H67       -82.0172   26.5694  -71.2773 H         1 UNK         0.0900 
     68 H68       -83.0032   25.4836  -72.2576 H         1 UNK         0.0900 
     69 H69       -83.5901   27.1031  -71.8717 H         1 UNK         0.0900 
     70 H70       -83.4626   28.4264  -73.6340 H         1 UNK         0.2959 
     71 H71       -83.0161   29.3065  -75.5635 H         1 UNK         0.1079 
     72 H72       -80.9904   30.5871  -75.7401 H         1 UNK         0.0837 
     73 H73       -81.5468   30.5894  -74.1023 H         1 UNK         0.0837 
     74 H74       -80.5052   29.3143  -72.1673 H         1 UNK         0.0685 
     75 H75       -79.5022   30.7366  -72.3220 H         1 UNK         0.0685 
     76 H76       -79.5642   27.1549  -71.4926 H         1 UNK         0.1434 
     77 H77       -75.5544   27.0913  -69.9732 H         1 UNK         0.1329 
     78 H78       -77.0128   30.5560  -72.0390 H         1 UNK         0.1335 
     79 H79       -74.8754   30.6448  -70.9494 H         1 UNK         0.0680 
     80 H80       -74.4403   29.4217  -69.7744 H         1 UNK         0.0680 
     81 H81       -72.2394   30.4885  -70.7244 H         1 UNK         0.1032 
     82 H82       -71.2568   29.4251  -71.6924 H         1 UNK         0.1032 
     83 H83       -72.9196   31.7822  -72.7027 H         1 UNK         0.0461 
     84 H84       -68.9440   32.4713  -73.2385 H         1 UNK         0.3453 
     85 H85       -69.7800   31.2477  -74.1659 H         1 UNK         0.3453 
     86 H86       -72.1383   29.5204  -74.1856 H         1 UNK         0.2984 
     87 H87       -73.4687   30.4012  -76.9080 H         1 UNK         0.0554 
     88 H88       -71.6661   30.2817  -78.6460 H         1 UNK         0.0847 
     89 H89       -70.5010   30.9044  -77.4785 H         1 UNK         0.0847 
     90 H90       -71.8499   31.9005  -77.9948 H         1 UNK         0.0847 
     91 H91       -73.0074   28.3047  -76.5319 H         1 UNK         0.3141 
     92 H92       -70.1901   26.3385  -76.2802 H         1 UNK         0.0743 
     93 H93       -70.0841   26.8813  -73.8488 H         1 UNK         0.0784 
     94 H94       -71.8383   26.8511  -73.7411 H         1 UNK         0.0784 
     95 H95       -70.9475   25.3745  -74.1060 H         1 UNK         0.0784 
     96 H96       -73.0002   25.8847  -75.6850 H         1 UNK         0.3213 
     97 H97       -74.1632   25.8960  -78.9581 H         1 UNK         0.0855 
     98 H98       -73.0456   23.6883  -79.2036 H         1 UNK         0.0814 
     99 H99       -74.7272   23.4688  -78.7483 H         1 UNK         0.0814 
    100 H100      -73.4515   23.2667  -77.5469 H         1 UNK         0.0814 
    101 H101      -75.3233   24.7198  -76.6563 H         1 UNK         0.3105 
    102 H102      -76.2785   27.5626  -74.8593 H         1 UNK         0.0547 
    103 H103      -78.0007   26.1709  -76.9800 H         1 UNK         0.0837 
    104 H104      -78.6343   26.7738  -75.4511 H         1 UNK         0.0837 
    105 H105      -77.9326   27.8848  -76.6173 H         1 UNK         0.0837 
    106 H106      -77.2237   24.8706  -74.8374 H         1 UNK         0.3020 
    107 H107      -74.5590   23.3996  -73.0928 H         1 UNK         0.1245 
    108 H108      -75.4353   24.8530  -71.1921 H         1 UNK         0.0781 
    109 H109      -75.7372   23.1492  -71.0587 H         1 UNK         0.0781 
    110 H110      -77.1093   25.3296  -69.3392 H         1 UNK         0.0836 
    111 H111      -78.8121   25.5505  -69.6370 H         1 UNK         0.0836 
    112 H112      -77.3139   22.6597  -73.3684 H         1 UNK         0.3022 
    113 H113      -77.1014   21.3699  -76.6418 H         1 UNK         0.0747 
    114 H114      -77.6700   19.1784  -75.6353 H         1 UNK         0.0793 
    115 H115      -75.9694   19.5268  -75.3792 H         1 UNK         0.0793 
    116 H116      -77.1077   19.7230  -74.0537 H         1 UNK         0.0793 
    117 H117      -79.1605   21.0061  -74.7818 H         1 UNK         0.3047 
    118 H118      -81.1743   22.2314  -75.4495 H         1 UNK         0.0822 
    119 H119      -80.3829   22.3235  -73.0861 H         1 UNK         0.0807 
    120 H120      -81.7721   23.3744  -73.2954 H         1 UNK         0.0807 
    121 H121      -80.1533   24.0609  -73.2063 H         1 UNK         0.0807 
    122 H122      -81.1055   25.1588  -75.1974 H         1 UNK         0.2946 
    123 H123      -81.2181   26.0788  -78.2212 H         1 UNK         0.1144 
    124 H124      -83.1431   24.9227  -79.2710 H         1 UNK         0.0793 
    125 H125      -83.6044   26.5588  -78.8411 H         1 UNK         0.0793 
    126 H126      -84.1354   25.2034  -77.8460 H         1 UNK         0.0793 
    127 H127      -82.8799   26.4109  -75.7576 H         1 UNK         0.2896 
@<TRIPOS>BOND
     1    1    2 1    
     2    1   67 1    
     3    1   68 1    
     4    1   69 1    
     5    2    3 2    
     6    2    4 am   BACKBONE|DICT|INTERRES
     7    4    5 1    
     8    4   70 1    
     9    5    6 1    
    10    5   65 1    
    11    5   71 1    
    12    6    7 1    
    13    6   72 1    
    14    6   73 1    
    15    7    8 1    
    16    8    9 1    
    17    8   74 1    
    18    8   75 1    
    19    9   10 ar   
    20    9   14 ar   
    21   10   11 ar   
    22   10   76 1    
    23   11   12 ar   
    24   11   48 1    
    25   12   13 ar   
    26   12   77 1    
    27   13   14 ar   
    28   13   15 1    
    29   14   78 1    
    30   15   16 1    
    31   15   79 1    
    32   15   80 1    
    33   16   17 1    
    34   17   18 1    
    35   17   81 1    
    36   17   82 1    
    37   18   19 1    
    38   18   22 1    
    39   18   83 1    
    40   19   20 am   BACKBONE|DICT|INTERRES
    41   19   21 2    
    42   20   84 1    
    43   20   85 1    
    44   22   23 am   BACKBONE|DICT|INTERRES
    45   22   86 1    
    46   23   24 2    
    47   23   25 1    
    48   25   26 1    
    49   25   27 1    
    50   25   87 1    
    51   26   88 1    
    52   26   89 1    
    53   26   90 1    
    54   27   28 am   BACKBONE|DICT|INTERRES
    55   27   91 1    
    56   28   29 2    
    57   28   30 1    
    58   30   31 1    
    59   30   32 1    
    60   30   92 1    
    61   31   93 1    
    62   31   94 1    
    63   31   95 1    
    64   32   33 am   BACKBONE|DICT|INTERRES
    65   32   96 1    
    66   33   34 2    
    67   33   35 1    
    68   35   36 1    
    69   35   37 1    
    70   35   97 1    
    71   36   98 1    
    72   36   99 1    
    73   36  100 1    
    74   37   38 am   BACKBONE|DICT|INTERRES
    75   37  101 1    
    76   38   39 2    
    77   38   40 1    
    78   40   41 1    
    79   40   42 1    
    80   40  102 1    
    81   41  103 1    
    82   41  104 1    
    83   41  105 1    
    84   42   43 am   BACKBONE|DICT|INTERRES
    85   42  106 1    
    86   43   44 2    
    87   43   45 1    
    88   45   46 1    
    89   45   49 1    
    90   45  107 1    
    91   46   47 1    
    92   46  108 1    
    93   46  109 1    
    94   47   48 1    
    95   48  110 1    
    96   48  111 1    
    97   49   50 am   BACKBONE|DICT|INTERRES
    98   49  112 1    
    99   50   51 2    
   100   50   52 1    
   101   52   53 1    
   102   52   54 1    
   103   52  113 1    
   104   53  114 1    
   105   53  115 1    
   106   53  116 1    
   107   54   55 am   BACKBONE|DICT|INTERRES
   108   54  117 1    
   109   55   56 2    
   110   55   57 1    
   111   57   58 1    
   112   57   59 1    
   113   57  118 1    
   114   58  119 1    
   115   58  120 1    
   116   58  121 1    
   117   59   60 am   BACKBONE|DICT|INTERRES
   118   59  122 1    
   119   60   61 2    
   120   60   62 1    
   121   62   63 1    
   122   62   64 1    
   123   62  123 1    
   124   63  124 1    
   125   63  125 1    
   126   63  126 1    
   127   64   65 am   BACKBONE|DICT|INTERRES
   128   64  127 1    
   129   65   66 2    
@<TRIPOS>SUBSTRUCTURE
     1 UNK         1 GROUP             0       ****    0 ROOT    
