@<TRIPOS>MOLECULE
3R135
127   129    1
SMALL
USER_CHARGES


@<TRIPOS>ATOM
      1 CA        -77.0825   28.3083  -70.9379 C.3       0 UNK        -0.1998 
      2 C         -78.5368   27.9171  -70.7393 C.2       0 UNK         0.4909 
      3 O         -78.9386   27.6182  -69.6145 O.2       0 UNK        -0.5240 
      4 N         -79.3265   27.8934  -71.8217 N.am      1 UNK        -0.4739 
      5 CA        -80.7333   27.4615  -71.8139 C.3       1 UNK         0.0864 
      6 C6        -81.5289   28.0057  -73.0276 C.3       11 UNK        -0.0881 
      7 S7        -81.5778   29.8320  -73.0736 S.3       11 UNK        -0.2682 
      8 C8        -80.7973   30.2102  -74.6755 C.3       11 UNK         0.0289 
      9 C9        -79.2973   29.9624  -74.6461 C.ar      11 UNK        -0.0687 
     10 C10       -78.7773   28.7491  -75.1036 C.ar      11 UNK        -0.0823 
     11 C11       -77.4049   28.4949  -75.0397 C.ar      11 UNK        -0.0830 
     12 C12       -76.5435   29.4871  -74.5641 C.ar      11 UNK        -0.1021 
     13 C13       -77.0491   30.7160  -74.1287 C.ar      11 UNK        -0.0753 
     14 C14       -78.4280   30.9452  -74.1619 C.ar      11 UNK        -0.0933 
     15 C15       -76.0989   31.7878  -73.6211 C.3       11 UNK         0.0166 
     16 S16       -75.6908   31.5083  -71.8738 S.3       11 UNK        -0.2615 
     17 C17       -74.2145   32.5638  -71.6730 C.3       11 UNK        -0.0865 
     18 CA        -72.9124   31.9499  -72.2613 C.3       10 UNK         0.0862 
     19 C         -71.6856   32.8552  -71.9454 C.2       10 UNK         0.5551 
     20 N         -70.6860   32.3886  -71.2072 N.am      10 UNK        -0.7319 
     21 O         -71.6428   34.0031  -72.3812 O.2       10 UNK        -0.5018 
     22 N         -72.7578   30.5280  -71.9059 N.am      10 UNK        -0.4509 
     23 C         -71.9842   29.6513  -72.5575 C.2       10 UNK         0.4899 
     24 O         -71.2259   29.9657  -73.4774 O.2       10 UNK        -0.4839 
     25 CA        -72.0444   28.1828  -72.0817 C.3       9 UNK         0.0222 
     26 CB        -73.4053   27.7905  -71.4569 C.3       9 UNK        -0.1966 
     27 N         -71.6640   27.2358  -73.1399 N.am      9 UNK        -0.4218 
     28 C         -72.3044   27.0208  -74.2991 C.2       9 UNK         0.5020 
     29 O         -73.3685   27.5568  -74.6147 O.2       9 UNK        -0.5274 
     30 CA        -71.6553   25.9924  -75.2428 C.3       8 UNK         0.0270 
     31 CB        -72.0212   24.5594  -74.8217 C.3       8 UNK        -0.1976 
     32 N         -72.0485   26.2069  -76.6397 N.am      8 UNK        -0.4313 
     33 C         -71.5675   27.2014  -77.4013 C.2       8 UNK         0.5041 
     34 O         -70.7093   27.9949  -77.0099 O.2       8 UNK        -0.5577 
     35 CA        -72.0746   27.3352  -78.8504 C.3       7 UNK         0.0284 
     36 CB        -70.9455   27.0181  -79.8470 C.3       7 UNK        -0.1958 
     37 N         -73.2237   26.4861  -79.1655 N.am      7 UNK        -0.4454 
     38 C         -74.5004   26.7860  -78.8964 C.2       7 UNK         0.5089 
     39 O         -74.8581   27.8157  -78.3246 O.2       7 UNK        -0.5125 
     40 CA        -75.5697   25.7677  -79.3442 C.3       6 UNK         0.0408 
     41 CB        -75.0671   24.7354  -80.3793 C.3       6 UNK        -0.1791 
     42 N         -76.1907   25.0785  -78.2095 N.am      6 UNK        -0.4762 
     43 C         -75.5680   24.3942  -77.2361 C.2       6 UNK         0.5007 
     44 O         -74.3436   24.2773  -77.1609 O.2       6 UNK        -0.5032 
     45 CA        -76.4550   23.7044  -76.1772 C.3       5 UNK         0.0783 
     46 C46       -76.3997   24.4299  -74.8047 C.3       11 UNK        -0.0857 
     47 S47       -77.6031   25.7799  -74.5516 S.3       11 UNK        -0.2512 
     48 C48       -76.8549   27.1508  -75.4879 C.3       11 UNK         0.0225 
     49 N         -77.8267   23.4617  -76.6436 N.am      5 UNK        -0.4615 
     50 C         -78.1756   22.5524  -77.5624 C.2       4 UNK         0.5053 
     51 O         -77.3746   21.7688  -78.0746 O.2       4 UNK        -0.5105 
     52 CA        -79.6616   22.5165  -77.9744 C.3       4 UNK         0.0263 
     53 CB        -79.9615   21.4281  -79.0227 C.3       4 UNK        -0.1981 
     54 N         -80.5438   22.3183  -76.8230 N.am      4 UNK        -0.4224 
     55 C         -80.9328   23.2739  -75.9697 C.2       3 UNK         0.4895 
     56 O         -80.6016   24.4559  -76.0816 O.2       3 UNK        -0.5091 
     57 CA        -81.8305   22.8560  -74.7876 C.3       3 UNK         0.0250 
     58 CB        -82.1582   21.3454  -74.7303 C.3       3 UNK        -0.1996 
     59 N         -81.2742   23.3129  -73.5100 N.am      3 UNK        -0.4254 
     60 C         -80.0727   23.0154  -72.9933 C.2       2 UNK         0.5004 
     61 O         -79.2669   22.2438  -73.5176 O.2       2 UNK        -0.5226 
     62 CA        -79.7179   23.7180  -71.6701 C.3       2 UNK         0.0269 
     63 CB        -78.3228   23.3338  -71.1420 C.3       2 UNK        -0.1926 
     64 N         -79.7813   25.1747  -71.8030 N.am      2 UNK        -0.4687 
     65 C         -80.8863   25.9261  -71.6993 C.2       1 UNK         0.5165 
     66 O         -82.0062   25.4415  -71.5266 O.2       1 UNK        -0.5079 
     67 H67       -76.8668   28.5557  -71.9757 H         1 UNK         0.0900 
     68 H68       -76.4300   27.4870  -70.6434 H         1 UNK         0.0900 
     69 H69       -76.8404   29.1741  -70.3229 H         1 UNK         0.0900 
     70 H70       -78.9579   28.1795  -72.7195 H         1 UNK         0.2959 
     71 H71       -81.1985   27.8701  -70.9138 H         1 UNK         0.1079 
     72 H72       -81.1300   27.6080  -73.9609 H         1 UNK         0.0837 
     73 H73       -82.5657   27.6658  -72.9838 H         1 UNK         0.0837 
     74 H74       -81.2721   29.6233  -75.4634 H         1 UNK         0.0685 
     75 H75       -80.9888   31.2561  -74.9200 H         1 UNK         0.0685 
     76 H76       -79.4402   27.9871  -75.4906 H         1 UNK         0.1434 
     77 H77       -75.4780   29.3014  -74.5217 H         1 UNK         0.1329 
     78 H78       -78.8257   31.8870  -73.8092 H         1 UNK         0.1335 
     79 H79       -75.1896   31.7758  -74.2231 H         1 UNK         0.0680 
     80 H80       -76.5362   32.7805  -73.7381 H         1 UNK         0.0680 
     81 H81       -74.4154   33.5384  -72.1226 H         1 UNK         0.1032 
     82 H82       -74.0916   32.7485  -70.6040 H         1 UNK         0.1032 
     83 H83       -73.0118   31.9808  -73.3477 H         1 UNK         0.0461 
     84 H84       -70.7132   31.4461  -70.8531 H         1 UNK         0.3453 
     85 H85       -69.8953   32.9817  -71.0106 H         1 UNK         0.3453 
     86 H86       -73.3502   30.1971  -71.1593 H         1 UNK         0.2984 
     87 H87       -71.2843   28.0839  -71.3057 H         1 UNK         0.0554 
     88 H88       -74.2371   28.0065  -72.1290 H         1 UNK         0.0847 
     89 H89       -73.5881   28.3243  -70.5240 H         1 UNK         0.0847 
     90 H90       -73.4398   26.7267  -71.2215 H         1 UNK         0.0847 
     91 H91       -70.7860   26.7578  -72.9919 H         1 UNK         0.3141 
     92 H92       -70.5704   26.0997  -75.1755 H         1 UNK         0.0743 
     93 H93       -73.0992   24.4047  -74.8095 H         1 UNK         0.0784 
     94 H94       -71.5852   23.8224  -75.4963 H         1 UNK         0.0784 
     95 H95       -71.6525   24.3387  -73.8193 H         1 UNK         0.0784 
     96 H96       -72.7938   25.6186  -76.9991 H         1 UNK         0.3213 
     97 H97       -72.3642   28.3792  -78.9905 H         1 UNK         0.0855 
     98 H98       -70.6020   25.9871  -79.7540 H         1 UNK         0.0814 
     99 H99       -70.0825   27.6642  -79.6797 H         1 UNK         0.0814 
    100 H100      -71.2678   27.1748  -80.8766 H         1 UNK         0.0814 
    101 H101      -73.0256   25.6000  -79.6075 H         1 UNK         0.3105 
    102 H102      -76.3594   26.3495  -79.8218 H         1 UNK         0.0547 
    103 H103      -74.6286   25.2272  -81.2488 H         1 UNK         0.0837 
    104 H104      -74.3199   24.0582  -79.9641 H         1 UNK         0.0837 
    105 H105      -75.8906   24.1221  -80.7454 H         1 UNK         0.0837 
    106 H106      -77.1981   25.1320  -78.1633 H         1 UNK         0.3020 
    107 H107      -75.9955   22.7240  -76.0292 H         1 UNK         0.1245 
    108 H108      -75.3980   24.8003  -74.5809 H         1 UNK         0.0781 
    109 H109      -76.6064   23.6932  -74.0277 H         1 UNK         0.0781 
    110 H110      -77.0668   27.0280  -76.5493 H         1 UNK         0.0836 
    111 H111      -75.7710   27.1199  -75.3808 H         1 UNK         0.0836 
    112 H112      -78.5512   24.0467  -76.2393 H         1 UNK         0.3022 
    113 H113      -79.8889   23.4823  -78.4309 H         1 UNK         0.0747 
    114 H114      -81.0055   21.4553  -79.3354 H         1 UNK         0.0793 
    115 H115      -79.3546   21.5695  -79.9182 H         1 UNK         0.0793 
    116 H116      -79.7512   20.4285  -78.6401 H         1 UNK         0.0793 
    117 H117      -80.8215   21.3672  -76.6285 H         1 UNK         0.3047 
    118 H118      -82.7708   23.3926  -74.9218 H         1 UNK         0.0822 
    119 H119      -82.8183   21.1232  -73.8916 H         1 UNK         0.0807 
    120 H120      -81.2643   20.7316  -74.6124 H         1 UNK         0.0807 
    121 H121      -82.6758   21.0163  -75.6324 H         1 UNK         0.0807 
    122 H122      -81.8318   23.9915  -73.0025 H         1 UNK         0.2946 
    123 H123      -80.4527   23.3927  -70.9297 H         1 UNK         0.1144 
    124 H124      -77.5323   23.6456  -71.8246 H         1 UNK         0.0793 
    125 H125      -78.2363   22.2544  -71.0107 H         1 UNK         0.0793 
    126 H126      -78.1271   23.7930  -70.1728 H         1 UNK         0.0793 
    127 H127      -78.9125   25.6461  -72.0111 H         1 UNK         0.2896 
@<TRIPOS>BOND
     1    1    2 1    
     2    1   67 1    
     3    1   68 1    
     4    1   69 1    
     5    2    3 2    
     6    2    4 am   BACKBONE|DICT|INTERRES
     7    4    5 1    
     8    4   70 1    
     9    5    6 1    
    10    5   65 1    
    11    5   71 1    
    12    6    7 1    
    13    6   72 1    
    14    6   73 1    
    15    7    8 1    
    16    8    9 1    
    17    8   74 1    
    18    8   75 1    
    19    9   10 ar   
    20    9   14 ar   
    21   10   11 ar   
    22   10   76 1    
    23   11   12 ar   
    24   11   48 1    
    25   12   13 ar   
    26   12   77 1    
    27   13   14 ar   
    28   13   15 1    
    29   14   78 1    
    30   15   16 1    
    31   15   79 1    
    32   15   80 1    
    33   16   17 1    
    34   17   18 1    
    35   17   81 1    
    36   17   82 1    
    37   18   19 1    
    38   18   22 1    
    39   18   83 1    
    40   19   20 am   BACKBONE|DICT|INTERRES
    41   19   21 2    
    42   20   84 1    
    43   20   85 1    
    44   22   23 am   BACKBONE|DICT|INTERRES
    45   22   86 1    
    46   23   24 2    
    47   23   25 1    
    48   25   26 1    
    49   25   27 1    
    50   25   87 1    
    51   26   88 1    
    52   26   89 1    
    53   26   90 1    
    54   27   28 am   BACKBONE|DICT|INTERRES
    55   27   91 1    
    56   28   29 2    
    57   28   30 1    
    58   30   31 1    
    59   30   32 1    
    60   30   92 1    
    61   31   93 1    
    62   31   94 1    
    63   31   95 1    
    64   32   33 am   BACKBONE|DICT|INTERRES
    65   32   96 1    
    66   33   34 2    
    67   33   35 1    
    68   35   36 1    
    69   35   37 1    
    70   35   97 1    
    71   36   98 1    
    72   36   99 1    
    73   36  100 1    
    74   37   38 am   BACKBONE|DICT|INTERRES
    75   37  101 1    
    76   38   39 2    
    77   38   40 1    
    78   40   41 1    
    79   40   42 1    
    80   40  102 1    
    81   41  103 1    
    82   41  104 1    
    83   41  105 1    
    84   42   43 am   BACKBONE|DICT|INTERRES
    85   42  106 1    
    86   43   44 2    
    87   43   45 1    
    88   45   46 1    
    89   45   49 1    
    90   45  107 1    
    91   46   47 1    
    92   46  108 1    
    93   46  109 1    
    94   47   48 1    
    95   48  110 1    
    96   48  111 1    
    97   49   50 am   BACKBONE|DICT|INTERRES
    98   49  112 1    
    99   50   51 2    
   100   50   52 1    
   101   52   53 1    
   102   52   54 1    
   103   52  113 1    
   104   53  114 1    
   105   53  115 1    
   106   53  116 1    
   107   54   55 am   BACKBONE|DICT|INTERRES
   108   54  117 1    
   109   55   56 2    
   110   55   57 1    
   111   57   58 1    
   112   57   59 1    
   113   57  118 1    
   114   58  119 1    
   115   58  120 1    
   116   58  121 1    
   117   59   60 am   BACKBONE|DICT|INTERRES
   118   59  122 1    
   119   60   61 2    
   120   60   62 1    
   121   62   63 1    
   122   62   64 1    
   123   62  123 1    
   124   63  124 1    
   125   63  125 1    
   126   63  126 1    
   127   64   65 am   BACKBONE|DICT|INTERRES
   128   64  127 1    
   129   65   66 2    
@<TRIPOS>SUBSTRUCTURE
     1 UNK         1 GROUP             0       ****    0 ROOT    
