@<TRIPOS>MOLECULE
3R135
127   129    1
SMALL
USER_CHARGES


@<TRIPOS>ATOM
      1 CA        -80.5268   23.9260  -71.5618 C.3       0 UNK        -0.1998 
      2 C         -80.9255   24.6034  -72.8637 C.2       0 UNK         0.4909 
      3 O         -81.5926   23.9862  -73.6949 O.2       0 UNK        -0.5240 
      4 N         -80.5310   25.8700  -73.0491 N.am      1 UNK        -0.4739 
      5 CA        -80.8176   26.6551  -74.2546 C.3       1 UNK         0.0864 
      6 C6        -80.4620   28.1505  -74.0831 C.3       11 UNK        -0.0881 
      7 S7        -81.4822   28.9865  -72.8264 S.3       11 UNK        -0.2682 
      8 C8        -80.4661   30.4711  -72.4827 C.3       11 UNK         0.0289 
      9 C9        -79.1397   30.2158  -71.7610 C.ar      11 UNK        -0.0687 
     10 C10       -78.8894   29.0304  -71.0606 C.ar      11 UNK        -0.0823 
     11 C11       -77.6654   28.8174  -70.4259 C.ar      11 UNK        -0.0830 
     12 C12       -76.6987   29.8240  -70.4362 C.ar      11 UNK        -0.1021 
     13 C13       -76.9313   31.0207  -71.1192 C.ar      11 UNK        -0.0753 
     14 C14       -78.1493   31.2057  -71.7851 C.ar      11 UNK        -0.0933 
     15 C15       -75.8777   32.1215  -71.1159 C.3       11 UNK         0.0166 
     16 S16       -74.6120   31.8775  -72.4037 S.3       11 UNK        -0.2615 
     17 C17       -73.5485   30.6041  -71.6362 C.3       11 UNK        -0.0865 
     18 CA        -72.2598   30.3098  -72.4469 C.3       10 UNK         0.0862 
     19 C         -71.3332   29.3334  -71.6648 C.2       10 UNK         0.5551 
     20 N         -71.1107   28.1065  -72.1203 N.am      10 UNK        -0.7319 
     21 O         -70.8032   29.7032  -70.6199 O.2       10 UNK        -0.5018 
     22 N         -72.5913   29.8746  -73.8080 N.am      10 UNK        -0.4509 
     23 C         -71.7642   29.8607  -74.8556 C.2       10 UNK         0.4899 
     24 O         -70.5890   30.2310  -74.8261 O.2       10 UNK        -0.4839 
     25 CA        -72.3823   29.3540  -76.1692 C.3       9 UNK         0.0222 
     26 CB        -72.0187   30.2727  -77.3482 C.3       9 UNK        -0.1966 
     27 N         -72.0480   27.9713  -76.5226 N.am      9 UNK        -0.4218 
     28 C         -72.0426   26.8862  -75.7336 C.2       9 UNK         0.5020 
     29 O         -72.1615   26.8997  -74.5077 O.2       9 UNK        -0.5274 
     30 CA        -71.9981   25.5410  -76.4782 C.3       8 UNK         0.0270 
     31 CB        -71.7921   24.3422  -75.5335 C.3       8 UNK        -0.1976 
     32 N         -73.2687   25.3769  -77.1819 N.am      8 UNK        -0.4313 
     33 C         -73.5593   25.8960  -78.3812 C.2       8 UNK         0.5041 
     34 O         -72.7226   26.4093  -79.1254 O.2       8 UNK        -0.5577 
     35 CA        -75.0474   25.9464  -78.7514 C.3       7 UNK         0.0284 
     36 CB        -75.6013   24.5474  -79.0669 C.3       7 UNK        -0.1958 
     37 N         -75.8077   26.5647  -77.6600 N.am      7 UNK        -0.4454 
     38 C         -75.9107   27.8900  -77.4797 C.2       7 UNK         0.5089 
     39 O         -75.4839   28.7177  -78.2851 O.2       7 UNK        -0.5125 
     40 CA        -76.5856   28.3987  -76.1939 C.3       6 UNK         0.0408 
     41 CB        -78.0024   28.9040  -76.4945 C.3       6 UNK        -0.1791 
     42 N         -76.5954   27.3912  -75.1186 N.am      6 UNK        -0.4762 
     43 C         -75.6947   27.3904  -74.1230 C.2       6 UNK         0.5007 
     44 O         -74.9377   28.3390  -73.9195 O.2       6 UNK        -0.5032 
     45 CA        -75.5285   26.1379  -73.2298 C.3       5 UNK         0.0783 
     46 C46       -75.6300   26.4333  -71.7049 C.3       11 UNK        -0.0857 
     47 S47       -77.2831   26.1458  -70.9742 S.3       11 UNK        -0.2512 
     48 C48       -77.3957   27.4861  -69.7476 C.3       11 UNK         0.0225 
     49 N         -76.2932   24.9439  -73.6019 N.am      5 UNK        -0.4615 
     50 C         -76.1139   24.1804  -74.6821 C.2       4 UNK         0.5053 
     51 O         -75.4208   24.5113  -75.6416 O.2       4 UNK        -0.5105 
     52 CA        -76.7841   22.8007  -74.6737 C.3       4 UNK         0.0263 
     53 CB        -77.0587   22.2513  -73.2557 C.3       4 UNK        -0.1981 
     54 N         -78.0205   22.8313  -75.4490 N.am      4 UNK        -0.4224 
     55 C         -78.5497   21.7607  -76.0618 C.2       3 UNK         0.4895 
     56 O         -78.0113   20.6524  -76.0741 O.2       3 UNK        -0.5091 
     57 CA        -79.9141   21.9150  -76.7614 C.3       3 UNK         0.0250 
     58 CB        -81.0142   21.2058  -75.9540 C.3       3 UNK        -0.1996 
     59 N         -80.3025   23.3088  -76.9712 N.am      3 UNK        -0.4254 
     60 C         -79.8095   24.0929  -77.9392 C.2       2 UNK         0.5004 
     61 O         -79.0570   23.6877  -78.8242 O.2       2 UNK        -0.5226 
     62 CA        -80.2005   25.5830  -77.9143 C.3       2 UNK         0.0269 
     63 CB        -81.2097   25.8946  -79.0312 C.3       2 UNK        -0.1926 
     64 N         -80.7440   26.0560  -76.6334 N.am      2 UNK        -0.4687 
     65 C         -80.0752   26.0730  -75.4725 C.2       1 UNK         0.5165 
     66 O         -78.9139   25.6713  -75.3531 O.2       1 UNK        -0.5079 
     67 H67       -81.4120   23.7341  -70.9562 H         1 UNK         0.0900 
     68 H68       -80.0437   22.9713  -71.7660 H         1 UNK         0.0900 
     69 H69       -79.8414   24.5371  -70.9758 H         1 UNK         0.0900 
     70 H70       -79.9611   26.3257  -72.3521 H         1 UNK         0.2959 
     71 H71       -81.8907   26.5784  -74.4452 H         1 UNK         0.1079 
     72 H72       -79.4068   28.2574  -73.8239 H         1 UNK         0.0837 
     73 H73       -80.6123   28.6903  -75.0199 H         1 UNK         0.0837 
     74 H74       -80.2762   30.9835  -73.4273 H         1 UNK         0.0685 
     75 H75       -81.0583   31.1553  -71.8739 H         1 UNK         0.0685 
     76 H76       -79.6345   28.2501  -71.0159 H         1 UNK         0.1434 
     77 H77       -75.7621   29.6730  -69.9184 H         1 UNK         0.1329 
     78 H78       -78.3310   32.1305  -72.3156 H         1 UNK         0.1335 
     79 H79       -75.4016   32.1851  -70.1363 H         1 UNK         0.0680 
     80 H80       -76.3545   33.0889  -71.2803 H         1 UNK         0.0680 
     81 H81       -73.2985   30.9317  -70.6251 H         1 UNK         0.1032 
     82 H82       -74.1266   29.6854  -71.5335 H         1 UNK         0.1032 
     83 H83       -71.7042   31.2452  -72.5358 H         1 UNK         0.0461 
     84 H84       -70.5060   27.4893  -71.6036 H         1 UNK         0.3453 
     85 H85       -71.5443   27.7848  -72.9835 H         1 UNK         0.3453 
     86 H86       -73.5136   29.4539  -73.9135 H         1 UNK         0.2984 
     87 H87       -73.4678   29.3883  -76.0616 H         1 UNK         0.0554 
     88 H88       -72.2554   31.3130  -77.1205 H         1 UNK         0.0847 
     89 H89       -72.5766   30.0054  -78.2462 H         1 UNK         0.0847 
     90 H90       -70.9550   30.2244  -77.5847 H         1 UNK         0.0847 
     91 H91       -71.9686   27.7898  -77.5160 H         1 UNK         0.3141 
     92 H92       -71.1706   25.5644  -77.1906 H         1 UNK         0.0743 
     93 H93       -70.8597   24.4413  -74.9764 H         1 UNK         0.0784 
     94 H94       -72.6005   24.2547  -74.8062 H         1 UNK         0.0784 
     95 H95       -71.7416   23.4059  -76.0893 H         1 UNK         0.0784 
     96 H96       -74.0414   25.0154  -76.6216 H         1 UNK         0.3213 
     97 H97       -75.1492   26.5546  -79.6531 H         1 UNK         0.0855 
     98 H98       -75.5836   23.8860  -78.2007 H         1 UNK         0.0814 
     99 H99       -75.0194   24.0676  -79.8549 H         1 UNK         0.0814 
    100 H100      -76.6304   24.6067  -79.4193 H         1 UNK         0.0814 
    101 H101      -76.1012   25.9473  -76.9121 H         1 UNK         0.3105 
    102 H102      -76.0156   29.2763  -75.8825 H         1 UNK         0.0547 
    103 H103      -78.4287   29.4034  -75.6266 H         1 UNK         0.0837 
    104 H104      -77.9880   29.6389  -77.3006 H         1 UNK         0.0837 
    105 H105      -78.6670   28.1033  -76.8080 H         1 UNK         0.0837 
    106 H106      -77.2502   26.6171  -75.1994 H         1 UNK         0.3020 
    107 H107      -74.4837   25.8686  -73.4050 H         1 UNK         0.1245 
    108 H108      -75.2871   27.4420  -71.4696 H         1 UNK         0.0781 
    109 H109      -74.9417   25.7737  -71.1743 H         1 UNK         0.0781 
    110 H110      -76.4815   27.5185  -69.1527 H         1 UNK         0.0836 
    111 H111      -78.2077   27.2655  -69.0531 H         1 UNK         0.0836 
    112 H112      -76.9256   24.6175  -72.8857 H         1 UNK         0.3022 
    113 H113      -76.0761   22.1279  -75.1628 H         1 UNK         0.0747 
    114 H114      -77.3850   21.2118  -73.2943 H         1 UNK         0.0793 
    115 H115      -76.1583   22.2774  -72.6401 H         1 UNK         0.0793 
    116 H116      -77.8333   22.8177  -72.7393 H         1 UNK         0.0793 
    117 H117      -78.4844   23.7334  -75.5101 H         1 UNK         0.3047 
    118 H118      -79.8383   21.4235  -77.7340 H         1 UNK         0.0822 
    119 H119      -80.7852   20.1466  -75.8286 H         1 UNK         0.0807 
    120 H120      -81.9801   21.2696  -76.4553 H         1 UNK         0.0807 
    121 H121      -81.1233   21.6341  -74.9571 H         1 UNK         0.0807 
    122 H122      -80.9143   23.7197  -76.2789 H         1 UNK         0.2946 
    123 H123      -79.2849   26.1433  -78.1158 H         1 UNK         0.1144 
    124 H124      -81.4157   26.9633  -79.0944 H         1 UNK         0.0793 
    125 H125      -82.1568   25.3766  -78.8751 H         1 UNK         0.0793 
    126 H126      -80.8254   25.5842  -80.0040 H         1 UNK         0.0793 
    127 H127      -81.6940   26.4001  -76.6540 H         1 UNK         0.2896 
@<TRIPOS>BOND
     1    1    2 1    
     2    1   67 1    
     3    1   68 1    
     4    1   69 1    
     5    2    3 2    
     6    2    4 am   BACKBONE|DICT|INTERRES
     7    4    5 1    
     8    4   70 1    
     9    5    6 1    
    10    5   65 1    
    11    5   71 1    
    12    6    7 1    
    13    6   72 1    
    14    6   73 1    
    15    7    8 1    
    16    8    9 1    
    17    8   74 1    
    18    8   75 1    
    19    9   10 ar   
    20    9   14 ar   
    21   10   11 ar   
    22   10   76 1    
    23   11   12 ar   
    24   11   48 1    
    25   12   13 ar   
    26   12   77 1    
    27   13   14 ar   
    28   13   15 1    
    29   14   78 1    
    30   15   16 1    
    31   15   79 1    
    32   15   80 1    
    33   16   17 1    
    34   17   18 1    
    35   17   81 1    
    36   17   82 1    
    37   18   19 1    
    38   18   22 1    
    39   18   83 1    
    40   19   20 am   BACKBONE|DICT|INTERRES
    41   19   21 2    
    42   20   84 1    
    43   20   85 1    
    44   22   23 am   BACKBONE|DICT|INTERRES
    45   22   86 1    
    46   23   24 2    
    47   23   25 1    
    48   25   26 1    
    49   25   27 1    
    50   25   87 1    
    51   26   88 1    
    52   26   89 1    
    53   26   90 1    
    54   27   28 am   BACKBONE|DICT|INTERRES
    55   27   91 1    
    56   28   29 2    
    57   28   30 1    
    58   30   31 1    
    59   30   32 1    
    60   30   92 1    
    61   31   93 1    
    62   31   94 1    
    63   31   95 1    
    64   32   33 am   BACKBONE|DICT|INTERRES
    65   32   96 1    
    66   33   34 2    
    67   33   35 1    
    68   35   36 1    
    69   35   37 1    
    70   35   97 1    
    71   36   98 1    
    72   36   99 1    
    73   36  100 1    
    74   37   38 am   BACKBONE|DICT|INTERRES
    75   37  101 1    
    76   38   39 2    
    77   38   40 1    
    78   40   41 1    
    79   40   42 1    
    80   40  102 1    
    81   41  103 1    
    82   41  104 1    
    83   41  105 1    
    84   42   43 am   BACKBONE|DICT|INTERRES
    85   42  106 1    
    86   43   44 2    
    87   43   45 1    
    88   45   46 1    
    89   45   49 1    
    90   45  107 1    
    91   46   47 1    
    92   46  108 1    
    93   46  109 1    
    94   47   48 1    
    95   48  110 1    
    96   48  111 1    
    97   49   50 am   BACKBONE|DICT|INTERRES
    98   49  112 1    
    99   50   51 2    
   100   50   52 1    
   101   52   53 1    
   102   52   54 1    
   103   52  113 1    
   104   53  114 1    
   105   53  115 1    
   106   53  116 1    
   107   54   55 am   BACKBONE|DICT|INTERRES
   108   54  117 1    
   109   55   56 2    
   110   55   57 1    
   111   57   58 1    
   112   57   59 1    
   113   57  118 1    
   114   58  119 1    
   115   58  120 1    
   116   58  121 1    
   117   59   60 am   BACKBONE|DICT|INTERRES
   118   59  122 1    
   119   60   61 2    
   120   60   62 1    
   121   62   63 1    
   122   62   64 1    
   123   62  123 1    
   124   63  124 1    
   125   63  125 1    
   126   63  126 1    
   127   64   65 am   BACKBONE|DICT|INTERRES
   128   64  127 1    
   129   65   66 2    
@<TRIPOS>SUBSTRUCTURE
     1 UNK         1 GROUP             0       ****    0 ROOT    
