@<TRIPOS>MOLECULE
3R135
127   129    1
SMALL
USER_CHARGES


@<TRIPOS>ATOM
      1 CA        -85.7953   29.7854  -72.1507 C.3       0 UNK        -0.1998 
      2 C         -84.4645   29.6945  -72.8824 C.2       0 UNK         0.4909 
      3 O         -83.9983   30.6927  -73.4330 O.2       0 UNK        -0.5240 
      4 N         -83.8545   28.5063  -72.8975 N.am      1 UNK        -0.4739 
      5 CA        -82.5840   28.2083  -73.5588 C.3       1 UNK         0.0864 
      6 C6        -81.3505   28.7901  -72.8148 C.3       11 UNK        -0.0881 
      7 S7        -81.1595   28.2324  -71.0848 S.3       11 UNK        -0.2682 
      8 C8        -79.9049   29.4096  -70.4830 C.3       11 UNK         0.0289 
      9 C9        -78.5807   29.2281  -71.2099 C.ar      11 UNK        -0.0687 
     10 C10       -77.6894   28.2303  -70.8057 C.ar      11 UNK        -0.0823 
     11 C11       -76.5009   28.0135  -71.5097 C.ar      11 UNK        -0.0830 
     12 C12       -76.2071   28.8078  -72.6217 C.ar      11 UNK        -0.1021 
     13 C13       -77.0722   29.8342  -73.0120 C.ar      11 UNK        -0.0753 
     14 C14       -78.2565   30.0414  -72.3005 C.ar      11 UNK        -0.0933 
     15 C15       -76.7410   30.7025  -74.2172 C.3       11 UNK         0.0166 
     16 S16       -75.8525   32.2310  -73.7669 S.3       11 UNK        -0.2615 
     17 C17       -74.2820   31.6015  -73.0775 C.3       11 UNK        -0.0865 
     18 CA        -73.3199   31.0327  -74.1590 C.3       10 UNK         0.0862 
     19 C         -72.3878   32.1344  -74.7388 C.2       10 UNK         0.5551 
     20 N         -72.8692   32.9107  -75.6994 N.am      10 UNK        -0.7319 
     21 O         -71.2539   32.3165  -74.2987 O.2       10 UNK        -0.5018 
     22 N         -72.5886   29.8640  -73.6463 N.am      10 UNK        -0.4509 
     23 C         -71.8831   29.0097  -74.3991 C.2       10 UNK         0.4899 
     24 O         -71.8048   29.0848  -75.6250 O.2       10 UNK        -0.4839 
     25 CA        -71.1183   27.8902  -73.6760 C.3       9 UNK         0.0222 
     26 CB        -71.3493   27.8276  -72.1506 C.3       9 UNK        -0.1966 
     27 N         -71.4716   26.6054  -74.2764 N.am      9 UNK        -0.4218 
     28 C         -70.6143   25.6094  -74.5268 C.2       9 UNK         0.5020 
     29 O         -69.4053   25.6678  -74.2943 O.2       9 UNK        -0.5274 
     30 CA        -71.1973   24.3115  -75.1113 C.3       8 UNK         0.0270 
     31 CB        -71.7632   23.4286  -73.9868 C.3       8 UNK        -0.1976 
     32 N         -72.2277   24.5264  -76.1309 N.am      8 UNK        -0.4313 
     33 C         -71.9974   25.0161  -77.3580 C.2       8 UNK         0.5041 
     34 O         -70.8853   25.3588  -77.7617 O.2       8 UNK        -0.5577 
     35 CA        -73.2051   25.1250  -78.3049 C.3       7 UNK         0.0284 
     36 CB        -73.5429   23.7583  -78.9228 C.3       7 UNK        -0.1958 
     37 N         -74.3826   25.6681  -77.6278 N.am      7 UNK        -0.4454 
     38 C         -74.5530   26.9654  -77.3406 C.2       7 UNK         0.5089 
     39 O         -73.8091   27.8556  -77.7497 O.2       7 UNK        -0.5125 
     40 CA        -75.7447   27.3446  -76.4415 C.3       6 UNK         0.0408 
     41 CB        -76.9523   27.7809  -77.2839 C.3       6 UNK        -0.1791 
     42 N         -76.1558   26.2832  -75.5199 N.am      6 UNK        -0.4762 
     43 C         -75.3995   25.8063  -74.5204 C.2       6 UNK         0.5007 
     44 O         -74.2746   26.2290  -74.2534 O.2       6 UNK        -0.5032 
     45 CA        -75.9740   24.6148  -73.7312 C.3       5 UNK         0.0783 
     46 C46       -76.9984   25.0666  -72.6597 C.3       11 UNK        -0.0857 
     47 S47       -76.2653   25.2656  -71.0022 S.3       11 UNK        -0.2512 
     48 C48       -75.5252   26.9303  -71.0693 C.3       11 UNK         0.0225 
     49 N         -76.5405   23.6140  -74.6379 N.am      5 UNK        -0.4615 
     50 C         -75.8205   22.8603  -75.4786 C.2       4 UNK         0.5053 
     51 O         -74.5949   22.9164  -75.5675 O.2       4 UNK        -0.5105 
     52 CA        -76.6066   21.9209  -76.4063 C.3       4 UNK         0.0263 
     53 CB        -76.9528   20.6097  -75.6835 C.3       4 UNK        -0.1981 
     54 N         -77.8307   22.5400  -76.9218 N.am      4 UNK        -0.4224 
     55 C         -77.8477   23.5919  -77.7530 C.2       3 UNK         0.4895 
     56 O         -76.8350   24.1263  -78.2020 O.2       3 UNK        -0.5091 
     57 CA        -79.2246   24.1687  -78.1156 C.3       3 UNK         0.0250 
     58 CB        -79.8388   23.3993  -79.2961 C.3       3 UNK        -0.1996 
     59 N         -80.1701   24.1905  -76.9939 N.am      3 UNK        -0.4254 
     60 C         -80.0027   24.9040  -75.8721 C.2       2 UNK         0.5004 
     61 O         -78.9920   25.5644  -75.6165 O.2       2 UNK        -0.5226 
     62 CA        -81.1477   24.8743  -74.8571 C.3       2 UNK         0.0269 
     63 CB        -80.8071   23.9686  -73.6597 C.3       2 UNK        -0.1926 
     64 N         -81.3849   26.2458  -74.4176 N.am      2 UNK        -0.4687 
     65 C         -82.4997   26.6926  -73.8288 C.2       1 UNK         0.5165 
     66 O         -83.4483   25.9612  -73.5259 O.2       1 UNK        -0.5079 
     67 H67       -86.0899   28.8280  -71.7211 H         1 UNK         0.0900 
     68 H68       -86.5798   30.1055  -72.8358 H         1 UNK         0.0900 
     69 H69       -85.7296   30.5134  -71.3427 H         1 UNK         0.0900 
     70 H70       -84.2919   27.6925  -72.4823 H         1 UNK         0.2959 
     71 H71       -82.6211   28.6705  -74.5480 H         1 UNK         0.1079 
     72 H72       -81.4180   29.8790  -72.8126 H         1 UNK         0.0837 
     73 H73       -80.4328   28.5610  -73.3582 H         1 UNK         0.0837 
     74 H74       -80.2741   30.4296  -70.6015 H         1 UNK         0.0685 
     75 H75       -79.7614   29.2587  -69.4121 H         1 UNK         0.0685 
     76 H76       -77.9322   27.6052  -69.9571 H         1 UNK         0.1434 
     77 H77       -75.2957   28.6384  -73.1790 H         1 UNK         0.1329 
     78 H78       -78.9365   30.8232  -72.6101 H         1 UNK         0.1335 
     79 H79       -76.1567   30.1398  -74.9430 H         1 UNK         0.0680 
     80 H80       -77.6629   30.9774  -74.7318 H         1 UNK         0.0680 
     81 H81       -74.5233   30.8518  -72.3253 H         1 UNK         0.1032 
     82 H82       -73.8068   32.4053  -72.5112 H         1 UNK         0.1032 
     83 H83       -73.9137   30.6529  -74.9921 H         1 UNK         0.0461 
     84 H84       -73.8112   32.7895  -76.0378 H         1 UNK         0.3453 
     85 H85       -72.2886   33.6415  -76.0799 H         1 UNK         0.3453 
     86 H86       -72.5535   29.7606  -72.6437 H         1 UNK         0.2984 
     87 H87       -70.0603   28.0971  -73.8487 H         1 UNK         0.0554 
     88 H88       -71.0404   28.7518  -71.6608 H         1 UNK         0.0847 
     89 H89       -72.3954   27.6452  -71.9047 H         1 UNK         0.0847 
     90 H90       -70.7641   27.0249  -71.7013 H         1 UNK         0.0847 
     91 H91       -72.4604   26.4715  -74.4856 H         1 UNK         0.3141 
     92 H92       -70.3759   23.7674  -75.5825 H         1 UNK         0.0743 
     93 H93       -71.0085   23.2359  -73.2231 H         1 UNK         0.0784 
     94 H94       -72.6140   23.9001  -73.4939 H         1 UNK         0.0784 
     95 H95       -72.0910   22.4615  -74.3687 H         1 UNK         0.0784 
     96 H96       -73.1634   24.2008  -75.9036 H         1 UNK         0.3213 
     97 H97       -72.9308   25.7998  -79.1190 H         1 UNK         0.0855 
     98 H98       -72.6831   23.3482  -79.4541 H         1 UNK         0.0814 
     99 H99       -74.3592   23.8403  -79.6408 H         1 UNK         0.0814 
    100 H100      -73.8368   23.0298  -78.1671 H         1 UNK         0.0814 
    101 H101      -75.1068   25.0132  -77.3557 H         1 UNK         0.3105 
    102 H102      -75.4235   28.1928  -75.8363 H         1 UNK         0.0547 
    103 H103      -76.6876   28.6025  -77.9507 H         1 UNK         0.0837 
    104 H104      -77.3250   26.9640  -77.9024 H         1 UNK         0.0837 
    105 H105      -77.7722   28.1249  -76.6530 H         1 UNK         0.0837 
    106 H106      -77.0917   25.9045  -75.6481 H         1 UNK         0.3020 
    107 H107      -75.1324   24.1323  -73.2284 H         1 UNK         0.1245 
    108 H108      -77.7578   24.2951  -72.5326 H         1 UNK         0.0781 
    109 H109      -77.5527   25.9602  -72.9547 H         1 UNK         0.0781 
    110 H110      -74.6563   26.8986  -71.7259 H         1 UNK         0.0836 
    111 H111      -75.1441   27.1831  -70.0791 H         1 UNK         0.0836 
    112 H112      -77.5466   23.5487  -74.6686 H         1 UNK         0.3022 
    113 H113      -75.9646   21.6829  -77.2574 H         1 UNK         0.0747 
    114 H114      -77.4403   19.9033  -76.3557 H         1 UNK         0.0793 
    115 H115      -76.0515   20.1246  -75.3055 H         1 UNK         0.0793 
    116 H116      -77.6146   20.7760  -74.8326 H         1 UNK         0.0793 
    117 H117      -78.7110   22.1576  -76.6088 H         1 UNK         0.3047 
    118 H118      -79.0683   25.2024  -78.4315 H         1 UNK         0.0822 
    119 H119      -80.7660   23.8633  -79.6331 H         1 UNK         0.0807 
    120 H120      -80.0562   22.3624  -79.0368 H         1 UNK         0.0807 
    121 H121      -79.1582   23.3860  -80.1488 H         1 UNK         0.0807 
    122 H122      -81.0266   23.6696  -77.1188 H         1 UNK         0.2946 
    123 H123      -82.0488   24.4987  -75.3478 H         1 UNK         0.1144 
    124 H124      -81.6646   23.8489  -72.9975 H         1 UNK         0.0793 
    125 H125      -79.9907   24.3808  -73.0683 H         1 UNK         0.0793 
    126 H126      -80.5116   22.9712  -73.9875 H         1 UNK         0.0793 
    127 H127      -80.6357   26.8875  -74.6450 H         1 UNK         0.2896 
@<TRIPOS>BOND
     1    1    2 1    
     2    1   67 1    
     3    1   68 1    
     4    1   69 1    
     5    2    3 2    
     6    2    4 am   BACKBONE|DICT|INTERRES
     7    4    5 1    
     8    4   70 1    
     9    5    6 1    
    10    5   65 1    
    11    5   71 1    
    12    6    7 1    
    13    6   72 1    
    14    6   73 1    
    15    7    8 1    
    16    8    9 1    
    17    8   74 1    
    18    8   75 1    
    19    9   10 ar   
    20    9   14 ar   
    21   10   11 ar   
    22   10   76 1    
    23   11   12 ar   
    24   11   48 1    
    25   12   13 ar   
    26   12   77 1    
    27   13   14 ar   
    28   13   15 1    
    29   14   78 1    
    30   15   16 1    
    31   15   79 1    
    32   15   80 1    
    33   16   17 1    
    34   17   18 1    
    35   17   81 1    
    36   17   82 1    
    37   18   19 1    
    38   18   22 1    
    39   18   83 1    
    40   19   20 am   BACKBONE|DICT|INTERRES
    41   19   21 2    
    42   20   84 1    
    43   20   85 1    
    44   22   23 am   BACKBONE|DICT|INTERRES
    45   22   86 1    
    46   23   24 2    
    47   23   25 1    
    48   25   26 1    
    49   25   27 1    
    50   25   87 1    
    51   26   88 1    
    52   26   89 1    
    53   26   90 1    
    54   27   28 am   BACKBONE|DICT|INTERRES
    55   27   91 1    
    56   28   29 2    
    57   28   30 1    
    58   30   31 1    
    59   30   32 1    
    60   30   92 1    
    61   31   93 1    
    62   31   94 1    
    63   31   95 1    
    64   32   33 am   BACKBONE|DICT|INTERRES
    65   32   96 1    
    66   33   34 2    
    67   33   35 1    
    68   35   36 1    
    69   35   37 1    
    70   35   97 1    
    71   36   98 1    
    72   36   99 1    
    73   36  100 1    
    74   37   38 am   BACKBONE|DICT|INTERRES
    75   37  101 1    
    76   38   39 2    
    77   38   40 1    
    78   40   41 1    
    79   40   42 1    
    80   40  102 1    
    81   41  103 1    
    82   41  104 1    
    83   41  105 1    
    84   42   43 am   BACKBONE|DICT|INTERRES
    85   42  106 1    
    86   43   44 2    
    87   43   45 1    
    88   45   46 1    
    89   45   49 1    
    90   45  107 1    
    91   46   47 1    
    92   46  108 1    
    93   46  109 1    
    94   47   48 1    
    95   48  110 1    
    96   48  111 1    
    97   49   50 am   BACKBONE|DICT|INTERRES
    98   49  112 1    
    99   50   51 2    
   100   50   52 1    
   101   52   53 1    
   102   52   54 1    
   103   52  113 1    
   104   53  114 1    
   105   53  115 1    
   106   53  116 1    
   107   54   55 am   BACKBONE|DICT|INTERRES
   108   54  117 1    
   109   55   56 2    
   110   55   57 1    
   111   57   58 1    
   112   57   59 1    
   113   57  118 1    
   114   58  119 1    
   115   58  120 1    
   116   58  121 1    
   117   59   60 am   BACKBONE|DICT|INTERRES
   118   59  122 1    
   119   60   61 2    
   120   60   62 1    
   121   62   63 1    
   122   62   64 1    
   123   62  123 1    
   124   63  124 1    
   125   63  125 1    
   126   63  126 1    
   127   64   65 am   BACKBONE|DICT|INTERRES
   128   64  127 1    
   129   65   66 2    
@<TRIPOS>SUBSTRUCTURE
     1 UNK         1 GROUP             0       ****    0 ROOT    
