@<TRIPOS>MOLECULE
3R135
127   129    1
SMALL
USER_CHARGES


@<TRIPOS>ATOM
      1 CA        -81.1570   21.8849  -69.5596 C.3       0 UNK        -0.1998 
      2 C         -81.8125   22.8860  -70.4992 C.2       0 UNK         0.4909 
      3 O         -82.9621   22.6918  -70.8971 O.2       0 UNK        -0.5240 
      4 N         -81.0943   23.9602  -70.8468 N.am      1 UNK        -0.4739 
      5 CA        -81.5178   24.9838  -71.8070 C.3       1 UNK         0.0864 
      6 C6        -80.6995   26.2982  -71.6707 C.3       11 UNK        -0.0881 
      7 S7        -78.8973   26.0724  -71.4327 S.3       11 UNK        -0.2682 
      8 C8        -78.4538   27.5025  -70.3906 C.3       11 UNK         0.0289 
      9 C9        -78.0518   28.7116  -71.2253 C.ar      11 UNK        -0.0687 
     10 C10       -78.9886   29.3384  -72.0517 C.ar      11 UNK        -0.0823 
     11 C11       -78.6185   30.4170  -72.8567 C.ar      11 UNK        -0.0830 
     12 C12       -77.3155   30.9145  -72.7833 C.ar      11 UNK        -0.1021 
     13 C13       -76.3715   30.3102  -71.9486 C.ar      11 UNK        -0.0753 
     14 C14       -76.7415   29.2024  -71.1786 C.ar      11 UNK        -0.0933 
     15 C15       -74.9532   30.8556  -71.9011 C.3       11 UNK         0.0166 
     16 S16       -74.0112   30.3281  -73.3632 S.3       11 UNK        -0.2615 
     17 C17       -72.5873   31.4765  -73.3177 C.3       11 UNK        -0.0865 
     18 CA        -71.2126   30.7683  -73.1635 C.3       10 UNK         0.0862 
     19 C         -70.9466   30.2406  -71.7232 C.2       10 UNK         0.5551 
     20 N         -70.4610   29.0168  -71.5315 N.am      10 UNK        -0.7319 
     21 O         -71.1615   30.9654  -70.7547 O.2       10 UNK        -0.5018 
     22 N         -70.9936   29.7508  -74.1936 N.am      10 UNK        -0.4509 
     23 C         -70.7350   29.9331  -75.4876 C.2       10 UNK         0.4899 
     24 O         -70.5927   31.0401  -76.0077 O.2       10 UNK        -0.4839 
     25 CA        -70.6317   28.6671  -76.3648 C.3       9 UNK         0.0222 
     26 CB        -69.1581   28.2946  -76.6183 C.3       9 UNK        -0.1966 
     27 N         -71.3998   27.5008  -75.8886 N.am      9 UNK        -0.4218 
     28 C         -71.2332   26.7764  -74.7673 C.2       9 UNK         0.5020 
     29 O         -70.3702   27.0235  -73.9221 O.2       9 UNK        -0.5274 
     30 CA        -72.2222   25.6307  -74.4833 C.3       8 UNK         0.0270 
     31 CB        -73.0535   25.9535  -73.2296 C.3       8 UNK        -0.1976 
     32 N         -73.1141   25.3312  -75.6101 N.am      8 UNK        -0.4313 
     33 C         -72.7276   24.6374  -76.6916 C.2       8 UNK         0.5041 
     34 O         -71.6105   24.1301  -76.8031 O.2       8 UNK        -0.5577 
     35 CA        -73.7147   24.4933  -77.8636 C.3       7 UNK         0.0284 
     36 CB        -74.3800   23.1073  -77.8594 C.3       7 UNK        -0.1958 
     37 N         -74.7386   25.5394  -77.9607 N.am      7 UNK        -0.4454 
     38 C         -74.4820   26.8273  -78.2363 C.2       7 UNK         0.5089 
     39 O         -73.3501   27.3123  -78.2416 O.2       7 UNK        -0.5125 
     40 CA        -75.6877   27.7164  -78.5766 C.3       6 UNK         0.0408 
     41 CB        -76.3019   27.3174  -79.9290 C.3       6 UNK        -0.1791 
     42 N         -76.7048   27.6318  -77.5322 N.am      6 UNK        -0.4762 
     43 C         -76.7828   28.4688  -76.4866 C.2       6 UNK         0.5007 
     44 O         -76.0728   29.4674  -76.3652 O.2       6 UNK        -0.5032 
     45 CA        -77.7898   28.1044  -75.3675 C.3       5 UNK         0.0783 
     46 C46       -79.1766   28.7752  -75.5735 C.3       11 UNK        -0.0857 
     47 S47       -79.1589   30.6055  -75.5635 S.3       11 UNK        -0.2512 
     48 C48       -79.6116   31.0087  -73.8440 C.3       11 UNK         0.0225 
     49 N         -77.9322   26.6494  -75.2079 N.am      5 UNK        -0.4615 
     50 C         -76.9246   25.8131  -74.9064 C.2       4 UNK         0.5053 
     51 O         -75.7859   26.1927  -74.6445 O.2       4 UNK        -0.5105 
     52 CA        -77.1747   24.2973  -75.0104 C.3       4 UNK         0.0263 
     53 CB        -77.3145   23.6399  -73.6310 C.3       4 UNK        -0.1981 
     54 N         -78.3106   23.9383  -75.8620 N.am      4 UNK        -0.4224 
     55 C         -78.3664   24.1769  -77.1817 C.2       3 UNK         0.4895 
     56 O         -77.4372   24.6741  -77.8201 O.2       3 UNK        -0.5091 
     57 CA        -79.6836   23.8630  -77.9125 C.3       3 UNK         0.0250 
     58 CB        -79.5819   22.5089  -78.6317 C.3       3 UNK        -0.1996 
     59 N         -80.8788   23.8721  -77.0608 N.am      3 UNK        -0.4254 
     60 C         -81.3084   24.9071  -76.3238 C.2       2 UNK         0.5004 
     61 O         -80.7128   25.9834  -76.2476 O.2       2 UNK        -0.5226 
     62 CA        -82.6033   24.7154  -75.5102 C.3       2 UNK         0.0269 
     63 CB        -83.2609   23.3241  -75.6686 C.3       2 UNK        -0.1926 
     64 N         -82.3999   25.0283  -74.0899 N.am      2 UNK        -0.4687 
     65 C         -81.5232   24.4474  -73.2557 C.2       1 UNK         0.5165 
     66 O         -80.7497   23.5456  -73.5913 O.2       1 UNK        -0.5079 
     67 H67       -80.1489   22.1896  -69.2791 H         1 UNK         0.0900 
     68 H68       -81.0950   20.9077  -70.0378 H         1 UNK         0.0900 
     69 H69       -81.7463   21.7828  -68.6488 H         1 UNK         0.0900 
     70 H70       -80.1439   24.0595  -70.5180 H         1 UNK         0.2959 
     71 H71       -82.5562   25.2261  -71.5677 H         1 UNK         0.1079 
     72 H72       -81.0888   26.8529  -70.8160 H         1 UNK         0.0837 
     73 H73       -80.8610   26.9447  -72.5348 H         1 UNK         0.0837 
     74 H74       -79.2772   27.7671  -69.7264 H         1 UNK         0.0685 
     75 H75       -77.6294   27.2030  -69.7418 H         1 UNK         0.0685 
     76 H76       -80.0008   28.9667  -72.0943 H         1 UNK         0.1434 
     77 H77       -77.0240   31.7492  -73.4066 H         1 UNK         0.1329 
     78 H78       -76.0079   28.7228  -70.5451 H         1 UNK         0.1335 
     79 H79       -74.9921   31.9452  -71.8596 H         1 UNK         0.0680 
     80 H80       -74.4357   30.5259  -70.9987 H         1 UNK         0.0680 
     81 H81       -72.7239   32.2235  -72.5339 H         1 UNK         0.1032 
     82 H82       -72.5966   32.0419  -74.2505 H         1 UNK         0.1032 
     83 H83       -70.4424   31.5270  -73.3133 H         1 UNK         0.0461 
     84 H84       -70.2917   28.7099  -70.5868 H         1 UNK         0.3453 
     85 H85       -70.2425   28.3967  -72.2998 H         1 UNK         0.3453 
     86 H86       -71.0357   28.7909  -73.8714 H         1 UNK         0.2984 
     87 H87       -71.0739   28.9278  -77.3276 H         1 UNK         0.0554 
     88 H88       -69.0749   27.4452  -77.2962 H         1 UNK         0.0847 
     89 H89       -68.6364   28.0400  -75.6952 H         1 UNK         0.0847 
     90 H90       -68.6196   29.1267  -77.0738 H         1 UNK         0.0847 
     91 H91       -72.1659   27.2380  -76.5007 H         1 UNK         0.3141 
     92 H92       -71.6285   24.7403  -74.2660 H         1 UNK         0.0743 
     93 H93       -73.6071   26.8870  -73.3419 H         1 UNK         0.0784 
     94 H94       -73.7687   25.1609  -73.0090 H         1 UNK         0.0784 
     95 H95       -72.4136   26.0632  -72.3531 H         1 UNK         0.0784 
     96 H96       -74.0583   25.7041  -75.5538 H         1 UNK         0.3213 
     97 H97       -73.1175   24.5610  -78.7758 H         1 UNK         0.0855 
     98 H98       -74.9595   22.9318  -76.9557 H         1 UNK         0.0814 
     99 H99       -73.6289   22.3182  -77.9160 H         1 UNK         0.0814 
    100 H100      -75.0448   22.9810  -78.7143 H         1 UNK         0.0814 
    101 H101      -75.7083   25.2268  -77.9553 H         1 UNK         0.3105 
    102 H102      -75.3309   28.7444  -78.6702 H         1 UNK         0.0547 
    103 H103      -75.5562   27.3642  -80.7237 H         1 UNK         0.0837 
    104 H104      -76.7021   26.3031  -79.9175 H         1 UNK         0.0837 
    105 H105      -77.1123   27.9912  -80.2071 H         1 UNK         0.0837 
    106 H106      -77.2844   26.8011  -77.5329 H         1 UNK         0.3020 
    107 H107      -77.3601   28.4763  -74.4350 H         1 UNK         0.1245 
    108 H108      -79.8721   28.4323  -74.8059 H         1 UNK         0.0781 
    109 H109      -79.6085   28.4538  -76.5229 H         1 UNK         0.0781 
    110 H110      -80.6242   30.6542  -73.6452 H         1 UNK         0.0836 
    111 H111      -79.6370   32.0930  -73.7267 H         1 UNK         0.0836 
    112 H112      -78.8405   26.2632  -75.4445 H         1 UNK         0.3022 
    113 H113      -76.2803   23.8779  -75.4685 H         1 UNK         0.0747 
    114 H114      -77.2932   22.5529  -73.7077 H         1 UNK         0.0793 
    115 H115      -76.4987   23.9355  -72.9696 H         1 UNK         0.0793 
    116 H116      -78.2459   23.9183  -73.1443 H         1 UNK         0.0793 
    117 H117      -79.1286   23.5641  -75.3974 H         1 UNK         0.3047 
    118 H118      -79.8191   24.6412  -78.6665 H         1 UNK         0.0822 
    119 H119      -80.4607   22.3183  -79.2480 H         1 UNK         0.0807 
    120 H120      -79.4790   21.6835  -77.9260 H         1 UNK         0.0807 
    121 H121      -78.7143   22.4821  -79.2930 H         1 UNK         0.0807 
    122 H122      -81.4220   23.0211  -77.0405 H         1 UNK         0.2946 
    123 H123      -83.3050   25.4570  -75.8958 H         1 UNK         0.1144 
    124 H124      -84.1897   23.2674  -75.1007 H         1 UNK         0.0793 
    125 H125      -82.6159   22.5177  -75.3174 H         1 UNK         0.0793 
    126 H126      -83.5170   23.1210  -76.7094 H         1 UNK         0.0793 
    127 H127      -82.9675   25.7853  -73.7344 H         1 UNK         0.2896 
@<TRIPOS>BOND
     1    1    2 1    
     2    1   67 1    
     3    1   68 1    
     4    1   69 1    
     5    2    3 2    
     6    2    4 am   BACKBONE|DICT|INTERRES
     7    4    5 1    
     8    4   70 1    
     9    5    6 1    
    10    5   65 1    
    11    5   71 1    
    12    6    7 1    
    13    6   72 1    
    14    6   73 1    
    15    7    8 1    
    16    8    9 1    
    17    8   74 1    
    18    8   75 1    
    19    9   10 ar   
    20    9   14 ar   
    21   10   11 ar   
    22   10   76 1    
    23   11   12 ar   
    24   11   48 1    
    25   12   13 ar   
    26   12   77 1    
    27   13   14 ar   
    28   13   15 1    
    29   14   78 1    
    30   15   16 1    
    31   15   79 1    
    32   15   80 1    
    33   16   17 1    
    34   17   18 1    
    35   17   81 1    
    36   17   82 1    
    37   18   19 1    
    38   18   22 1    
    39   18   83 1    
    40   19   20 am   BACKBONE|DICT|INTERRES
    41   19   21 2    
    42   20   84 1    
    43   20   85 1    
    44   22   23 am   BACKBONE|DICT|INTERRES
    45   22   86 1    
    46   23   24 2    
    47   23   25 1    
    48   25   26 1    
    49   25   27 1    
    50   25   87 1    
    51   26   88 1    
    52   26   89 1    
    53   26   90 1    
    54   27   28 am   BACKBONE|DICT|INTERRES
    55   27   91 1    
    56   28   29 2    
    57   28   30 1    
    58   30   31 1    
    59   30   32 1    
    60   30   92 1    
    61   31   93 1    
    62   31   94 1    
    63   31   95 1    
    64   32   33 am   BACKBONE|DICT|INTERRES
    65   32   96 1    
    66   33   34 2    
    67   33   35 1    
    68   35   36 1    
    69   35   37 1    
    70   35   97 1    
    71   36   98 1    
    72   36   99 1    
    73   36  100 1    
    74   37   38 am   BACKBONE|DICT|INTERRES
    75   37  101 1    
    76   38   39 2    
    77   38   40 1    
    78   40   41 1    
    79   40   42 1    
    80   40  102 1    
    81   41  103 1    
    82   41  104 1    
    83   41  105 1    
    84   42   43 am   BACKBONE|DICT|INTERRES
    85   42  106 1    
    86   43   44 2    
    87   43   45 1    
    88   45   46 1    
    89   45   49 1    
    90   45  107 1    
    91   46   47 1    
    92   46  108 1    
    93   46  109 1    
    94   47   48 1    
    95   48  110 1    
    96   48  111 1    
    97   49   50 am   BACKBONE|DICT|INTERRES
    98   49  112 1    
    99   50   51 2    
   100   50   52 1    
   101   52   53 1    
   102   52   54 1    
   103   52  113 1    
   104   53  114 1    
   105   53  115 1    
   106   53  116 1    
   107   54   55 am   BACKBONE|DICT|INTERRES
   108   54  117 1    
   109   55   56 2    
   110   55   57 1    
   111   57   58 1    
   112   57   59 1    
   113   57  118 1    
   114   58  119 1    
   115   58  120 1    
   116   58  121 1    
   117   59   60 am   BACKBONE|DICT|INTERRES
   118   59  122 1    
   119   60   61 2    
   120   60   62 1    
   121   62   63 1    
   122   62   64 1    
   123   62  123 1    
   124   63  124 1    
   125   63  125 1    
   126   63  126 1    
   127   64   65 am   BACKBONE|DICT|INTERRES
   128   64  127 1    
   129   65   66 2    
@<TRIPOS>SUBSTRUCTURE
     1 UNK         1 GROUP             0       ****    0 ROOT    
