@<TRIPOS>MOLECULE
3R135
127   129    1
SMALL
USER_CHARGES


@<TRIPOS>ATOM
      1 CA        -85.2597   26.8928  -71.6707 C.3       0 UNK        -0.1998 
      2 C         -83.8447   27.0481  -72.2071 C.2       0 UNK         0.4909 
      3 O         -83.5470   28.0416  -72.8706 O.2       0 UNK        -0.5240 
      4 N         -82.9692   26.0727  -71.9263 N.am      1 UNK        -0.4739 
      5 CA        -81.5704   26.0509  -72.3771 C.3       1 UNK         0.0864 
      6 C6        -80.7061   25.1544  -71.4509 C.3       11 UNK        -0.0881 
      7 S7        -78.9451   25.6322  -71.4142 S.3       11 UNK        -0.2682 
      8 C8        -78.9476   27.0399  -70.2621 C.3       11 UNK         0.0289 
      9 C9        -78.1298   28.1867  -70.8338 C.ar      11 UNK        -0.0687 
     10 C10       -78.6429   28.9356  -71.8942 C.ar      11 UNK        -0.0823 
     11 C11       -77.8960   29.9668  -72.4643 C.ar      11 UNK        -0.0830 
     12 C12       -76.6424   30.2827  -71.9344 C.ar      11 UNK        -0.1021 
     13 C13       -76.1165   29.5460  -70.8679 C.ar      11 UNK        -0.0753 
     14 C14       -76.8629   28.4925  -70.3262 C.ar      11 UNK        -0.0933 
     15 C15       -74.7499   29.8918  -70.2922 C.3       11 UNK         0.0166 
     16 S16       -73.3973   29.4492  -71.4288 S.3       11 UNK        -0.2615 
     17 C17       -72.9862   31.0805  -72.1478 C.3       11 UNK        -0.0865 
     18 CA        -71.7631   31.0573  -73.1008 C.3       10 UNK         0.0862 
     19 C         -70.4243   30.8057  -72.3417 C.2       10 UNK         0.5551 
     20 N         -69.6854   29.7353  -72.6133 N.am      10 UNK        -0.7319 
     21 O         -70.0431   31.6116  -71.4962 O.2       10 UNK        -0.5018 
     22 N         -72.0054   30.1777  -74.2515 N.am      10 UNK        -0.4509 
     23 C         -71.3305   30.2115  -75.4072 C.2       10 UNK         0.4899 
     24 O         -70.5071   31.0827  -75.6920 O.2       10 UNK        -0.4839 
     25 CA        -71.6222   29.0712  -76.4036 C.3       9 UNK         0.0222 
     26 CB        -70.4543   28.8172  -77.3793 C.3       9 UNK        -0.1966 
     27 N         -72.0315   27.8199  -75.7525 N.am      9 UNK        -0.4218 
     28 C         -71.3370   27.0959  -74.8601 C.2       9 UNK         0.5020 
     29 O         -70.2247   27.4094  -74.4330 O.2       9 UNK        -0.5274 
     30 CA        -72.0087   25.8182  -74.3317 C.3       8 UNK         0.0270 
     31 CB        -72.8706   26.1392  -73.1003 C.3       8 UNK        -0.1976 
     32 N         -72.8289   25.1486  -75.3441 N.am      8 UNK        -0.4313 
     33 C         -72.3363   24.4904  -76.4036 C.2       8 UNK         0.5041 
     34 O         -71.1334   24.3152  -76.6037 O.2       8 UNK        -0.5577 
     35 CA        -73.3536   23.9472  -77.4221 C.3       7 UNK         0.0284 
     36 CB        -73.9824   22.6376  -76.9215 C.3       7 UNK        -0.1958 
     37 N         -74.4037   24.9183  -77.7401 N.am      7 UNK        -0.4454 
     38 C         -74.1937   26.0706  -78.3933 C.2       7 UNK         0.5089 
     39 O         -73.1033   26.4148  -78.8488 O.2       7 UNK        -0.5125 
     40 CA        -75.3984   27.0118  -78.5516 C.3       6 UNK         0.0408 
     41 CB        -76.2018   26.6631  -79.8143 C.3       6 UNK        -0.1791 
     42 N         -76.2828   27.0036  -77.3850 N.am      6 UNK        -0.4762 
     43 C         -75.9622   27.5117  -76.1854 C.2       6 UNK         0.5007 
     44 O         -74.8721   28.0236  -75.9292 O.2       6 UNK        -0.5032 
     45 CA        -77.0306   27.3825  -75.0772 C.3       5 UNK         0.0783 
     46 C46       -78.1951   28.3860  -75.3004 C.3       11 UNK        -0.0857 
     47 S47       -77.6825   30.1423  -75.2191 S.3       11 UNK        -0.2512 
     48 C48       -78.4397   30.7212  -73.6666 C.3       11 UNK         0.0225 
     49 N         -77.5207   26.0004  -74.9611 N.am      5 UNK        -0.4615 
     50 C         -76.7481   24.9209  -74.7544 C.2       4 UNK         0.5053 
     51 O         -75.5382   24.9794  -74.5413 O.2       4 UNK        -0.5105 
     52 CA        -77.3975   23.5313  -74.8884 C.3       4 UNK         0.0263 
     53 CB        -77.9405   23.0148  -73.5502 C.3       4 UNK        -0.1981 
     54 N         -78.4532   23.4659  -75.8959 N.am      4 UNK        -0.4224 
     55 C         -78.3112   23.7064  -77.2037 C.2       3 UNK         0.4895 
     56 O         -77.2367   24.0062  -77.7252 O.2       3 UNK        -0.5091 
     57 CA        -79.5799   23.6348  -78.0760 C.3       3 UNK         0.0250 
     58 CB        -79.8428   22.1929  -78.5514 C.3       3 UNK        -0.1996 
     59 N         -80.7785   24.2347  -77.4627 N.am      3 UNK        -0.4254 
     60 C         -81.4515   23.8422  -76.3700 C.2       2 UNK         0.5004 
     61 O         -81.1895   22.8289  -75.7174 O.2       2 UNK        -0.5226 
     62 CA        -82.5842   24.7662  -75.8955 C.3       2 UNK         0.0269 
     63 CB        -83.9553   24.1264  -76.1665 C.3       2 UNK        -0.1926 
     64 N         -82.4769   25.0938  -74.4695 N.am      2 UNK        -0.4687 
     65 C         -81.4302   25.6940  -73.8782 C.2       1 UNK         0.5165 
     66 O         -80.4007   26.0016  -74.4817 O.2       1 UNK        -0.5079 
     67 H67       -85.3811   25.9731  -71.0986 H         1 UNK         0.0900 
     68 H68       -85.9733   26.8769  -72.4941 H         1 UNK         0.0900 
     69 H69       -85.5082   27.7312  -71.0206 H         1 UNK         0.0900 
     70 H70       -83.2692   25.2808  -71.3745 H         1 UNK         0.2959 
     71 H71       -81.2035   27.0737  -72.2838 H         1 UNK         0.1079 
     72 H72       -81.0724   25.2010  -70.4237 H         1 UNK         0.0837 
     73 H73       -80.7840   24.1045  -71.7397 H         1 UNK         0.0837 
     74 H74       -79.9663   27.3831  -70.0760 H         1 UNK         0.0685 
     75 H75       -78.5494   26.7159  -69.2995 H         1 UNK         0.0685 
     76 H76       -79.6156   28.6952  -72.2971 H         1 UNK         0.1434 
     77 H77       -76.0713   31.0907  -72.3675 H         1 UNK         0.1329 
     78 H78       -76.4594   27.9115  -69.5082 H         1 UNK         0.1335 
     79 H79       -74.5910   29.3629  -69.3513 H         1 UNK         0.0680 
     80 H80       -74.7129   30.9544  -70.0485 H         1 UNK         0.0680 
     81 H81       -73.8543   31.4513  -72.6925 H         1 UNK         0.1032 
     82 H82       -72.8196   31.7948  -71.3390 H         1 UNK         0.1032 
     83 H83       -71.6706   32.0680  -73.5033 H         1 UNK         0.0461 
     84 H84       -68.8216   29.5966  -72.1143 H         1 UNK         0.3453 
     85 H85       -69.9804   29.0539  -73.3045 H         1 UNK         0.3453 
     86 H86       -72.6581   29.4231  -74.0965 H         1 UNK         0.2984 
     87 H87       -72.4807   29.3960  -76.9931 H         1 UNK         0.0554 
     88 H88       -70.6927   28.0160  -78.0792 H         1 UNK         0.0847 
     89 H89       -69.5401   28.5419  -76.8525 H         1 UNK         0.0847 
     90 H90       -70.2348   29.7072  -77.9702 H         1 UNK         0.0847 
     91 H91       -72.9861   27.5339  -75.9541 H         1 UNK         0.3141 
     92 H92       -71.2183   25.1303  -74.0242 H         1 UNK         0.0743 
     93 H93       -72.2758   26.6168  -72.3204 H         1 UNK         0.0784 
     94 H94       -73.6917   26.8148  -73.3456 H         1 UNK         0.0784 
     95 H95       -73.3019   25.2347  -72.6711 H         1 UNK         0.0784 
     96 H96       -73.8390   25.1873  -75.2104 H         1 UNK         0.3213 
     97 H97       -72.8160   23.7304  -78.3478 H         1 UNK         0.0855 
     98 H98       -74.7343   22.2621  -77.6160 H         1 UNK         0.0814 
     99 H99       -74.4537   22.7636  -75.9477 H         1 UNK         0.0814 
    100 H100      -73.2229   21.8623  -76.8128 H         1 UNK         0.0814 
    101 H101      -75.3540   24.6883  -77.4653 H         1 UNK         0.3105 
    102 H102      -75.0110   28.0263  -78.6692 H         1 UNK         0.0547 
    103 H103      -76.6259   25.6598  -79.7635 H         1 UNK         0.0837 
    104 H104      -77.0194   27.3664  -79.9724 H         1 UNK         0.0837 
    105 H105      -75.5672   26.7018  -80.7007 H         1 UNK         0.0837 
    106 H106      -77.1709   26.5343  -77.4904 H         1 UNK         0.3020 
    107 H107      -76.5470   27.6262  -74.1279 H         1 UNK         0.1245 
    108 H108      -78.9786   28.2151  -74.5635 H         1 UNK         0.0781 
    109 H109      -78.6709   28.2140  -76.2675 H         1 UNK         0.0781 
    110 H110      -78.2395   31.7873  -73.5500 H         1 UNK         0.0836 
    111 H111      -79.5243   30.6206  -73.7330 H         1 UNK         0.0836 
    112 H112      -78.5260   25.8715  -75.0348 H         1 UNK         0.3022 
    113 H113      -76.6121   22.8451  -75.2064 H         1 UNK         0.0747 
    114 H114      -77.2368   23.1961  -72.7364 H         1 UNK         0.0793 
    115 H115      -78.1226   21.9409  -73.5896 H         1 UNK         0.0793 
    116 H116      -78.8824   23.4968  -73.2927 H         1 UNK         0.0793 
    117 H117      -79.3858   23.2140  -75.5761 H         1 UNK         0.3047 
    118 H118      -79.3734   24.2355  -78.9635 H         1 UNK         0.0822 
    119 H119      -78.9816   21.8012  -79.0944 H         1 UNK         0.0807 
    120 H120      -80.6984   22.1475  -79.2251 H         1 UNK         0.0807 
    121 H121      -80.0345   21.5143  -77.7197 H         1 UNK         0.0807 
    122 H122      -81.0763   25.0965  -77.8995 H         1 UNK         0.2946 
    123 H123      -82.5275   25.7069  -76.4476 H         1 UNK         0.1144 
    124 H124      -84.7695   24.7975  -75.8921 H         1 UNK         0.0793 
    125 H125      -84.0829   23.1968  -75.6099 H         1 UNK         0.0793 
    126 H126      -84.0743   23.8908  -77.2251 H         1 UNK         0.0793 
    127 H127      -83.2743   24.8692  -73.8934 H         1 UNK         0.2896 
@<TRIPOS>BOND
     1    1    2 1    
     2    1   67 1    
     3    1   68 1    
     4    1   69 1    
     5    2    3 2    
     6    2    4 am   BACKBONE|DICT|INTERRES
     7    4    5 1    
     8    4   70 1    
     9    5    6 1    
    10    5   65 1    
    11    5   71 1    
    12    6    7 1    
    13    6   72 1    
    14    6   73 1    
    15    7    8 1    
    16    8    9 1    
    17    8   74 1    
    18    8   75 1    
    19    9   10 ar   
    20    9   14 ar   
    21   10   11 ar   
    22   10   76 1    
    23   11   12 ar   
    24   11   48 1    
    25   12   13 ar   
    26   12   77 1    
    27   13   14 ar   
    28   13   15 1    
    29   14   78 1    
    30   15   16 1    
    31   15   79 1    
    32   15   80 1    
    33   16   17 1    
    34   17   18 1    
    35   17   81 1    
    36   17   82 1    
    37   18   19 1    
    38   18   22 1    
    39   18   83 1    
    40   19   20 am   BACKBONE|DICT|INTERRES
    41   19   21 2    
    42   20   84 1    
    43   20   85 1    
    44   22   23 am   BACKBONE|DICT|INTERRES
    45   22   86 1    
    46   23   24 2    
    47   23   25 1    
    48   25   26 1    
    49   25   27 1    
    50   25   87 1    
    51   26   88 1    
    52   26   89 1    
    53   26   90 1    
    54   27   28 am   BACKBONE|DICT|INTERRES
    55   27   91 1    
    56   28   29 2    
    57   28   30 1    
    58   30   31 1    
    59   30   32 1    
    60   30   92 1    
    61   31   93 1    
    62   31   94 1    
    63   31   95 1    
    64   32   33 am   BACKBONE|DICT|INTERRES
    65   32   96 1    
    66   33   34 2    
    67   33   35 1    
    68   35   36 1    
    69   35   37 1    
    70   35   97 1    
    71   36   98 1    
    72   36   99 1    
    73   36  100 1    
    74   37   38 am   BACKBONE|DICT|INTERRES
    75   37  101 1    
    76   38   39 2    
    77   38   40 1    
    78   40   41 1    
    79   40   42 1    
    80   40  102 1    
    81   41  103 1    
    82   41  104 1    
    83   41  105 1    
    84   42   43 am   BACKBONE|DICT|INTERRES
    85   42  106 1    
    86   43   44 2    
    87   43   45 1    
    88   45   46 1    
    89   45   49 1    
    90   45  107 1    
    91   46   47 1    
    92   46  108 1    
    93   46  109 1    
    94   47   48 1    
    95   48  110 1    
    96   48  111 1    
    97   49   50 am   BACKBONE|DICT|INTERRES
    98   49  112 1    
    99   50   51 2    
   100   50   52 1    
   101   52   53 1    
   102   52   54 1    
   103   52  113 1    
   104   53  114 1    
   105   53  115 1    
   106   53  116 1    
   107   54   55 am   BACKBONE|DICT|INTERRES
   108   54  117 1    
   109   55   56 2    
   110   55   57 1    
   111   57   58 1    
   112   57   59 1    
   113   57  118 1    
   114   58  119 1    
   115   58  120 1    
   116   58  121 1    
   117   59   60 am   BACKBONE|DICT|INTERRES
   118   59  122 1    
   119   60   61 2    
   120   60   62 1    
   121   62   63 1    
   122   62   64 1    
   123   62  123 1    
   124   63  124 1    
   125   63  125 1    
   126   63  126 1    
   127   64   65 am   BACKBONE|DICT|INTERRES
   128   64  127 1    
   129   65   66 2    
@<TRIPOS>SUBSTRUCTURE
     1 UNK         1 GROUP             0       ****    0 ROOT    
