@<TRIPOS>MOLECULE
3R135
127   129    1
SMALL
USER_CHARGES


@<TRIPOS>ATOM
      1 CA        -85.1489   26.0987  -72.1470 C.3       0 UNK        -0.1998 
      2 C         -83.8385   26.7841  -72.5029 C.2       0 UNK         0.4909 
      3 O         -83.8520   27.8798  -73.0630 O.2       0 UNK        -0.5240 
      4 N         -82.7045   26.1409  -72.1984 N.am      1 UNK        -0.4739 
      5 CA        -81.3474   26.6546  -72.4288 C.3       1 UNK         0.0864 
      6 C6        -80.3529   26.1500  -71.3491 C.3       11 UNK        -0.0881 
      7 S7        -80.6032   26.9044  -69.7071 S.3       11 UNK        -0.2682 
      8 C8        -80.0659   28.6424  -69.9287 C.3       11 UNK         0.0289 
      9 C9        -78.8652   28.8228  -70.8546 C.ar      11 UNK        -0.0687 
     10 C10       -79.0302   29.4478  -72.0951 C.ar      11 UNK        -0.0823 
     11 C11       -77.9495   29.6059  -72.9684 C.ar      11 UNK        -0.0830 
     12 C12       -76.6885   29.1434  -72.5871 C.ar      11 UNK        -0.1021 
     13 C13       -76.5031   28.5383  -71.3403 C.ar      11 UNK        -0.0753 
     14 C14       -77.5934   28.3785  -70.4771 C.ar      11 UNK        -0.0933 
     15 C15       -75.1165   28.0711  -70.9336 C.3       11 UNK         0.0166 
     16 S16       -74.1756   29.4458  -70.2057 S.3       11 UNK        -0.2615 
     17 C17       -72.4566   28.8954  -70.4663 C.3       11 UNK        -0.0865 
     18 CA        -71.7874   29.6362  -71.6535 C.3       10 UNK         0.0862 
     19 C         -70.2666   29.3361  -71.7018 C.2       10 UNK         0.5551 
     20 N         -69.4283   30.2913  -71.3249 N.am      10 UNK        -0.7319 
     21 O         -69.8487   28.2285  -72.0321 O.2       10 UNK        -0.5018 
     22 N         -72.4294   29.2983  -72.9306 N.am      10 UNK        -0.4509 
     23 C         -72.3371   30.0233  -74.0525 C.2       10 UNK         0.4899 
     24 O         -71.7868   31.1240  -74.1140 O.2       10 UNK        -0.4839 
     25 CA        -72.9724   29.3994  -75.3134 C.3       9 UNK         0.0222 
     26 CB        -72.5791   30.1323  -76.6139 C.3       9 UNK        -0.1966 
     27 N         -72.7114   27.9559  -75.4119 N.am      9 UNK        -0.4218 
     28 C         -71.5108   27.3619  -75.4988 C.2       9 UNK         0.5020 
     29 O         -70.4475   27.9655  -75.6461 O.2       9 UNK        -0.5274 
     30 CA        -71.4807   25.8355  -75.3662 C.3       8 UNK         0.0270 
     31 CB        -71.6688   25.4187  -73.8958 C.3       8 UNK        -0.1976 
     32 N         -72.4981   25.1746  -76.1891 N.am      8 UNK        -0.4313 
     33 C         -72.2270   24.2060  -77.0733 C.2       8 UNK         0.5041 
     34 O         -71.0861   23.8574  -77.3830 O.2       8 UNK        -0.5577 
     35 CA        -73.4145   23.4497  -77.6873 C.3       7 UNK         0.0284 
     36 CB        -73.8484   22.3072  -76.7545 C.3       7 UNK        -0.1958 
     37 N         -74.5708   24.2886  -78.0103 N.am      7 UNK        -0.4454 
     38 C         -74.6236   25.1064  -79.0712 C.2       7 UNK         0.5089 
     39 O         -73.6674   25.3272  -79.8152 O.2       7 UNK        -0.5125 
     40 CA        -75.9807   25.7620  -79.3796 C.3       6 UNK         0.0408 
     41 CB        -76.9651   24.7365  -79.9654 C.3       6 UNK        -0.1791 
     42 N         -76.5790   26.3963  -78.2078 N.am      6 UNK        -0.4762 
     43 C         -76.1363   27.5337  -77.6527 C.2       6 UNK         0.5007 
     44 O         -75.2055   28.2018  -78.1007 O.2       6 UNK        -0.5032 
     45 CA        -76.8526   27.9902  -76.3656 C.3       5 UNK         0.0783 
     46 C46       -78.1309   28.7811  -76.7537 C.3       11 UNK        -0.0857 
     47 S47       -79.2253   29.3097  -75.3965 S.3       11 UNK        -0.2512 
     48 C48       -78.1515   30.2964  -74.3097 C.3       11 UNK         0.0225 
     49 N         -77.0884   26.8596  -75.4571 N.am      5 UNK        -0.4615 
     50 C         -76.1154   26.0830  -74.9522 C.2       4 UNK         0.5053 
     51 O         -74.9140   26.3012  -75.1122 O.2       4 UNK        -0.5105 
     52 CA        -76.5308   24.8229  -74.1835 C.3       4 UNK         0.0263 
     53 CB        -76.6873   25.1317  -72.6891 C.3       4 UNK        -0.1981 
     54 N         -77.7628   24.2401  -74.7159 N.am      4 UNK        -0.4224 
     55 C         -77.8315   23.5444  -75.8596 C.2       3 UNK         0.4895 
     56 O         -76.8576   23.3080  -76.5726 O.2       3 UNK        -0.5091 
     57 CA        -79.2216   23.0606  -76.3056 C.3       3 UNK         0.0250 
     58 CB        -79.5997   21.7582  -75.5828 C.3       3 UNK        -0.1996 
     59 N         -80.2681   24.0625  -76.0955 N.am      3 UNK        -0.4254 
     60 C         -80.3234   25.2389  -76.7348 C.2       2 UNK         0.5004 
     61 O         -79.5256   25.5815  -77.6089 O.2       2 UNK        -0.5226 
     62 CA        -81.4292   26.2159  -76.2940 C.3       2 UNK         0.0269 
     63 CB        -82.7269   25.9413  -77.0702 C.3       2 UNK        -0.1926 
     64 N         -81.7242   26.2462  -74.8514 N.am      2 UNK        -0.4687 
     65 C         -80.8275   26.3902  -73.8625 C.2       1 UNK         0.5165 
     66 O         -79.6142   26.3253  -74.0540 O.2       1 UNK        -0.5079 
     67 H67       -84.9875   25.1345  -71.6655 H         1 UNK         0.0900 
     68 H68       -85.7432   25.9343  -73.0454 H         1 UNK         0.0900 
     69 H69       -85.7257   26.7246  -71.4666 H         1 UNK         0.0900 
     70 H70       -82.7558   25.2362  -71.7513 H         1 UNK         0.2959 
     71 H71       -81.3819   27.7426  -72.3554 H         1 UNK         0.1079 
     72 H72       -80.4227   25.0658  -71.2479 H         1 UNK         0.0837 
     73 H73       -79.3180   26.3426  -71.6211 H         1 UNK         0.0837 
     74 H74       -80.9170   29.2172  -70.2970 H         1 UNK         0.0685 
     75 H75       -79.8262   29.0601  -68.9500 H         1 UNK         0.0685 
     76 H76       -80.0054   29.8078  -72.3929 H         1 UNK         0.1434 
     77 H77       -75.8445   29.2677  -73.2509 H         1 UNK         0.1329 
     78 H78       -77.4555   27.9060  -69.5143 H         1 UNK         0.1335 
     79 H79       -75.1788   27.2514  -70.2161 H         1 UNK         0.0680 
     80 H80       -74.5958   27.6793  -71.8083 H         1 UNK         0.0680 
     81 H81       -72.4196   27.8129  -70.6042 H         1 UNK         0.1032 
     82 H82       -71.9121   29.0966  -69.5415 H         1 UNK         0.1032 
     83 H83       -71.9179   30.7083  -71.4890 H         1 UNK         0.0461 
     84 H84       -68.4374   30.1058  -71.3343 H         1 UNK         0.3453 
     85 H85       -69.7653   31.2001  -71.0469 H         1 UNK         0.3453 
     86 H86       -72.8585   28.3885  -72.9829 H         1 UNK         0.2984 
     87 H87       -74.0503   29.5055  -75.1921 H         1 UNK         0.0554 
     88 H88       -73.0312   29.6637  -77.4875 H         1 UNK         0.0847 
     89 H89       -71.4992   30.1452  -76.7636 H         1 UNK         0.0847 
     90 H90       -72.9149   31.1696  -76.5932 H         1 UNK         0.0847 
     91 H91       -73.5292   27.3568  -75.2990 H         1 UNK         0.3141 
     92 H92       -70.4801   25.5200  -75.6691 H         1 UNK         0.0743 
     93 H93       -72.6615   25.6726  -73.5224 H         1 UNK         0.0784 
     94 H94       -71.5320   24.3444  -73.7717 H         1 UNK         0.0784 
     95 H95       -70.9397   25.9136  -73.2524 H         1 UNK         0.0784 
     96 H96       -73.4662   25.4230  -76.0048 H         1 UNK         0.3213 
     97 H97       -73.0624   22.9968  -78.6171 H         1 UNK         0.0855 
     98 H98       -74.2324   22.6837  -75.8058 H         1 UNK         0.0814 
     99 H99       -73.0102   21.6468  -76.5280 H         1 UNK         0.0814 
    100 H100      -74.6267   21.6957  -77.2115 H         1 UNK         0.0814 
    101 H101      -75.4195   24.1189  -77.4742 H         1 UNK         0.3105 
    102 H102      -75.8150   26.5329  -80.1353 H         1 UNK         0.0547 
    103 H103      -76.5486   24.2577  -80.8526 H         1 UNK         0.0837 
    104 H104      -77.2061   23.9483  -79.2513 H         1 UNK         0.0837 
    105 H105      -77.9005   25.2115  -80.2619 H         1 UNK         0.0837 
    106 H106      -77.3859   25.9382  -77.7973 H         1 UNK         0.3020 
    107 H107      -76.1732   28.6700  -75.8516 H         1 UNK         0.1245 
    108 H108      -77.8563   29.6752  -77.3171 H         1 UNK         0.0781 
    109 H109      -78.7501   28.1881  -77.4292 H         1 UNK         0.0781 
    110 H110      -77.1997   30.5100  -74.7968 H         1 UNK         0.0836 
    111 H111      -78.6244   31.2646  -74.1399 H         1 UNK         0.0836 
    112 H112      -78.0527   26.6668  -75.2009 H         1 UNK         0.3022 
    113 H113      -75.7328   24.0852  -74.2910 H         1 UNK         0.0747 
    114 H114      -77.0924   24.2821  -72.1395 H         1 UNK         0.0793 
    115 H115      -75.7221   25.3766  -72.2450 H         1 UNK         0.0793 
    116 H116      -77.3403   25.9874  -72.5270 H         1 UNK         0.0793 
    117 H117      -78.6237   24.5162  -74.2595 H         1 UNK         0.3047 
    118 H118      -79.1682   22.8529  -77.3767 H         1 UNK         0.0822 
    119 H119      -80.5433   21.3580  -75.9542 H         1 UNK         0.0807 
    120 H120      -79.6965   21.9042  -74.5062 H         1 UNK         0.0807 
    121 H121      -78.8401   20.9911  -75.7407 H         1 UNK         0.0807 
    122 H122      -80.9608   23.8701  -75.3866 H         1 UNK         0.2946 
    123 H123      -81.0825   27.2154  -76.5631 H         1 UNK         0.1144 
    124 H124      -82.5450   25.9328  -78.1461 H         1 UNK         0.0793 
    125 H125      -83.4752   26.7103  -76.8774 H         1 UNK         0.0793 
    126 H126      -83.1598   24.9762  -76.8044 H         1 UNK         0.0793 
    127 H127      -82.6986   26.3241  -74.5967 H         1 UNK         0.2896 
@<TRIPOS>BOND
     1    1    2 1    
     2    1   67 1    
     3    1   68 1    
     4    1   69 1    
     5    2    3 2    
     6    2    4 am   BACKBONE|DICT|INTERRES
     7    4    5 1    
     8    4   70 1    
     9    5    6 1    
    10    5   65 1    
    11    5   71 1    
    12    6    7 1    
    13    6   72 1    
    14    6   73 1    
    15    7    8 1    
    16    8    9 1    
    17    8   74 1    
    18    8   75 1    
    19    9   10 ar   
    20    9   14 ar   
    21   10   11 ar   
    22   10   76 1    
    23   11   12 ar   
    24   11   48 1    
    25   12   13 ar   
    26   12   77 1    
    27   13   14 ar   
    28   13   15 1    
    29   14   78 1    
    30   15   16 1    
    31   15   79 1    
    32   15   80 1    
    33   16   17 1    
    34   17   18 1    
    35   17   81 1    
    36   17   82 1    
    37   18   19 1    
    38   18   22 1    
    39   18   83 1    
    40   19   20 am   BACKBONE|DICT|INTERRES
    41   19   21 2    
    42   20   84 1    
    43   20   85 1    
    44   22   23 am   BACKBONE|DICT|INTERRES
    45   22   86 1    
    46   23   24 2    
    47   23   25 1    
    48   25   26 1    
    49   25   27 1    
    50   25   87 1    
    51   26   88 1    
    52   26   89 1    
    53   26   90 1    
    54   27   28 am   BACKBONE|DICT|INTERRES
    55   27   91 1    
    56   28   29 2    
    57   28   30 1    
    58   30   31 1    
    59   30   32 1    
    60   30   92 1    
    61   31   93 1    
    62   31   94 1    
    63   31   95 1    
    64   32   33 am   BACKBONE|DICT|INTERRES
    65   32   96 1    
    66   33   34 2    
    67   33   35 1    
    68   35   36 1    
    69   35   37 1    
    70   35   97 1    
    71   36   98 1    
    72   36   99 1    
    73   36  100 1    
    74   37   38 am   BACKBONE|DICT|INTERRES
    75   37  101 1    
    76   38   39 2    
    77   38   40 1    
    78   40   41 1    
    79   40   42 1    
    80   40  102 1    
    81   41  103 1    
    82   41  104 1    
    83   41  105 1    
    84   42   43 am   BACKBONE|DICT|INTERRES
    85   42  106 1    
    86   43   44 2    
    87   43   45 1    
    88   45   46 1    
    89   45   49 1    
    90   45  107 1    
    91   46   47 1    
    92   46  108 1    
    93   46  109 1    
    94   47   48 1    
    95   48  110 1    
    96   48  111 1    
    97   49   50 am   BACKBONE|DICT|INTERRES
    98   49  112 1    
    99   50   51 2    
   100   50   52 1    
   101   52   53 1    
   102   52   54 1    
   103   52  113 1    
   104   53  114 1    
   105   53  115 1    
   106   53  116 1    
   107   54   55 am   BACKBONE|DICT|INTERRES
   108   54  117 1    
   109   55   56 2    
   110   55   57 1    
   111   57   58 1    
   112   57   59 1    
   113   57  118 1    
   114   58  119 1    
   115   58  120 1    
   116   58  121 1    
   117   59   60 am   BACKBONE|DICT|INTERRES
   118   59  122 1    
   119   60   61 2    
   120   60   62 1    
   121   62   63 1    
   122   62   64 1    
   123   62  123 1    
   124   63  124 1    
   125   63  125 1    
   126   63  126 1    
   127   64   65 am   BACKBONE|DICT|INTERRES
   128   64  127 1    
   129   65   66 2    
@<TRIPOS>SUBSTRUCTURE
     1 UNK         1 GROUP             0       ****    0 ROOT    
