@<TRIPOS>MOLECULE
3R135
127   129    1
SMALL
USER_CHARGES


@<TRIPOS>ATOM
      1 CA        -85.7618   29.1093  -74.5609 C.3       0 UNK        -0.1998 
      2 C         -84.4459   28.8917  -75.2925 C.2       0 UNK         0.4909 
      3 O         -84.3900   29.0502  -76.5123 O.2       0 UNK        -0.5240 
      4 N         -83.3866   28.5293  -74.5565 N.am      1 UNK        -0.4739 
      5 CA        -82.0385   28.2826  -75.0907 C.3       1 UNK         0.0864 
      6 C6        -80.9662   28.3062  -73.9739 C.3       11 UNK        -0.0881 
      7 S7        -80.8630   29.9406  -73.1738 S.3       11 UNK        -0.2682 
      8 C8        -80.1378   29.5110  -71.5579 C.3       11 UNK         0.0289 
      9 C9        -78.7205   28.9564  -71.6616 C.ar      11 UNK        -0.0687 
     10 C10       -78.3888   27.7575  -71.0224 C.ar      11 UNK        -0.0823 
     11 C11       -77.0801   27.2658  -71.0651 C.ar      11 UNK        -0.0830 
     12 C12       -76.1033   27.9700  -71.7735 C.ar      11 UNK        -0.1021 
     13 C13       -76.4223   29.1648  -72.4242 C.ar      11 UNK        -0.0753 
     14 C14       -77.7287   29.6574  -72.3560 C.ar      11 UNK        -0.0933 
     15 C15       -75.3648   29.9241  -73.2094 C.3       11 UNK         0.0166 
     16 S16       -74.4733   31.1144  -72.1612 S.3       11 UNK        -0.2615 
     17 C17       -73.0752   30.1056  -71.5546 C.3       11 UNK        -0.0865 
     18 CA        -71.7696   30.3832  -72.3473 C.3       10 UNK         0.0862 
     19 C         -70.5334   29.6932  -71.6976 C.2       10 UNK         0.5551 
     20 N         -69.6892   28.9836  -72.4386 N.am      10 UNK        -0.7319 
     21 O         -70.3261   29.8146  -70.4927 O.2       10 UNK        -0.5018 
     22 N         -71.9351   30.0664  -73.7741 N.am      10 UNK        -0.4509 
     23 C         -71.4244   30.7728  -74.7883 C.2       10 UNK         0.4899 
     24 O         -70.7886   31.8188  -74.6475 O.2       10 UNK        -0.4839 
     25 CA        -71.6661   30.1967  -76.1987 C.3       9 UNK         0.0222 
     26 CB        -70.7073   30.7838  -77.2561 C.3       9 UNK        -0.1966 
     27 N         -71.6426   28.7274  -76.2430 N.am      9 UNK        -0.4218 
     28 C         -70.6332   27.9205  -75.8696 C.2       9 UNK         0.5020 
     29 O         -69.5788   28.3315  -75.3829 O.2       9 UNK        -0.5274 
     30 CA        -70.8260   26.3994  -76.0244 C.3       8 UNK         0.0270 
     31 CB        -70.7469   25.6974  -74.6571 C.3       8 UNK        -0.1976 
     32 N         -72.0885   26.0466  -76.6779 N.am      8 UNK        -0.4313 
     33 C         -72.2889   26.0616  -78.0040 C.2       8 UNK         0.5041 
     34 O         -71.4010   26.3008  -78.8230 O.2       8 UNK        -0.5577 
     35 CA        -73.7176   25.7918  -78.5110 C.3       7 UNK         0.0284 
     36 CB        -73.8211   24.3795  -79.1093 C.3       7 UNK        -0.1958 
     37 N         -74.7469   25.9644  -77.4807 N.am      7 UNK        -0.4454 
     38 C         -75.1215   27.1485  -76.9705 C.2       7 UNK         0.5089 
     39 O         -74.6223   28.2227  -77.3066 O.2       7 UNK        -0.5125 
     40 CA        -76.1860   27.1250  -75.8579 C.3       6 UNK         0.0408 
     41 CB        -77.5930   27.1798  -76.4677 C.3       6 UNK        -0.1791 
     42 N         -76.0733   25.9540  -74.9832 N.am      6 UNK        -0.4762 
     43 C         -74.9945   25.6731  -74.2337 C.2       6 UNK         0.5007 
     44 O         -74.0302   26.4337  -74.1380 O.2       6 UNK        -0.5032 
     45 CA        -74.9237   24.2972  -73.5344 C.3       5 UNK         0.0783 
     46 C46       -75.0558   24.4061  -71.9942 C.3       11 UNK        -0.0857 
     47 S47       -76.7782   24.5301  -71.3919 S.3       11 UNK        -0.2512 
     48 C48       -76.7196   25.9933  -70.3146 C.3       11 UNK         0.0225 
     49 N         -75.8350   23.2951  -74.0966 N.am      5 UNK        -0.4615 
     50 C         -75.8087   22.8293  -75.3510 C.2       4 UNK         0.5053 
     51 O         -74.9560   23.1527  -76.1769 O.2       4 UNK        -0.5105 
     52 CA        -76.9491   21.8856  -75.7734 C.3       4 UNK         0.0263 
     53 CB        -76.4886   20.4220  -75.6858 C.3       4 UNK        -0.1981 
     54 N         -78.1974   22.0486  -75.0140 N.am      4 UNK        -0.4224 
     55 C         -78.9225   23.1747  -74.9451 C.2       3 UNK         0.4895 
     56 O         -78.5740   24.2475  -75.4421 O.2       3 UNK        -0.5091 
     57 CA        -80.2324   23.0949  -74.1428 C.3       3 UNK         0.0250 
     58 CB        -80.0007   23.5249  -72.6861 C.3       3 UNK        -0.1996 
     59 N         -81.2790   23.9375  -74.7218 N.am      3 UNK        -0.4254 
     60 C         -81.8892   23.7116  -75.8935 C.2       2 UNK         0.5004 
     61 O         -81.6709   22.7251  -76.5986 O.2       2 UNK        -0.5226 
     62 CA        -82.9433   24.7378  -76.3494 C.3       2 UNK         0.0269 
     63 CB        -84.3610   24.1693  -76.1691 C.3       2 UNK        -0.1926 
     64 N         -82.8585   26.0245  -75.6499 N.am      2 UNK        -0.4687 
     65 C         -81.9480   26.9753  -75.9080 C.2       1 UNK         0.5165 
     66 O         -81.0675   26.8565  -76.7599 O.2       1 UNK        -0.5079 
     67 H67       -86.5222   28.4308  -74.9467 H         1 UNK         0.0900 
     68 H68       -85.6660   28.9376  -73.4889 H         1 UNK         0.0900 
     69 H69       -86.1091   30.1312  -74.7104 H         1 UNK         0.0900 
     70 H70       -83.4827   28.4436  -73.5545 H         1 UNK         0.2959 
     71 H71       -81.8082   29.0898  -75.7903 H         1 UNK         0.1079 
     72 H72       -81.1746   27.5427  -73.2220 H         1 UNK         0.0837 
     73 H73       -79.9777   28.0795  -74.3748 H         1 UNK         0.0837 
     74 H74       -80.1144   30.4078  -70.9375 H         1 UNK         0.0685 
     75 H75       -80.7986   28.8054  -71.0518 H         1 UNK         0.0685 
     76 H76       -79.1454   27.2146  -70.4724 H         1 UNK         0.1434 
     77 H77       -75.0944   27.5868  -71.8179 H         1 UNK         0.1329 
     78 H78       -77.9760   30.5892  -72.8459 H         1 UNK         0.1335 
     79 H79       -74.6639   29.2289  -73.6730 H         1 UNK         0.0680 
     80 H80       -75.8350   30.4673  -74.0305 H         1 UNK         0.0680 
     81 H81       -72.9396   30.3484  -70.4989 H         1 UNK         0.1032 
     82 H82       -73.3263   29.0452  -71.5859 H         1 UNK         0.1032 
     83 H83       -71.5703   31.4524  -72.2544 H         1 UNK         0.0461 
     84 H84       -68.8942   28.5533  -71.9942 H         1 UNK         0.3453 
     85 H85       -69.8076   28.8990  -73.4417 H         1 UNK         0.3453 
     86 H86       -72.4132   29.2029  -73.9838 H         1 UNK         0.2984 
     87 H87       -72.6802   30.4901  -76.4742 H         1 UNK         0.0554 
     88 H88       -70.8127   31.8673  -77.3233 H         1 UNK         0.0847 
     89 H89       -70.9129   30.3784  -78.2467 H         1 UNK         0.0847 
     90 H90       -69.6643   30.5728  -77.0171 H         1 UNK         0.0847 
     91 H91       -72.4832   28.2972  -76.6105 H         1 UNK         0.3141 
     92 H92       -70.0003   26.0311  -76.6369 H         1 UNK         0.0743 
     93 H93       -71.4754   26.0947  -73.9507 H         1 UNK         0.0784 
     94 H94       -70.9136   24.6240  -74.7480 H         1 UNK         0.0784 
     95 H95       -69.7617   25.8331  -74.2087 H         1 UNK         0.0784 
     96 H96       -72.8772   25.8686  -76.0695 H         1 UNK         0.3213 
     97 H97       -73.9188   26.5117  -79.3075 H         1 UNK         0.0855 
     98 H98       -73.5739   23.6103  -78.3772 H         1 UNK         0.0814 
     99 H99       -73.1312   24.2614  -79.9460 H         1 UNK         0.0814 
    100 H100      -74.8237   24.1771  -79.4861 H         1 UNK         0.0814 
    101 H101      -75.1554   25.1168  -77.1025 H         1 UNK         0.3105 
    102 H102      -76.0497   28.0143  -75.2421 H         1 UNK         0.0547 
    103 H103      -77.7349   28.0924  -77.0477 H         1 UNK         0.0837 
    104 H104      -77.7807   26.3359  -77.1329 H         1 UNK         0.0837 
    105 H105      -78.3587   27.1623  -75.6944 H         1 UNK         0.0837 
    106 H106      -76.8393   25.2875  -75.0162 H         1 UNK         0.3020 
    107 H107      -73.9130   23.9359  -73.7391 H         1 UNK         0.1245 
    108 H108      -74.4533   25.2310  -71.6099 H         1 UNK         0.0781 
    109 H109      -74.6295   23.5100  -71.5406 H         1 UNK         0.0781 
    110 H110      -75.7369   26.0884  -69.8504 H         1 UNK         0.0836 
    111 H111      -77.4194   25.8400  -69.4916 H         1 UNK         0.0836 
    112 H112      -76.5849   23.0006  -73.4880 H         1 UNK         0.3022 
    113 H113      -77.1752   22.1100  -76.8179 H         1 UNK         0.0747 
    114 H114      -77.2419   19.7430  -76.0857 H         1 UNK         0.0793 
    115 H115      -75.5760   20.2644  -76.2629 H         1 UNK         0.0793 
    116 H116      -76.2787   20.1254  -74.6573 H         1 UNK         0.0793 
    117 H117      -78.5501   21.2205  -74.5554 H         1 UNK         0.3047 
    118 H118      -80.5894   22.0627  -74.1508 H         1 UNK         0.0822 
    119 H119      -79.2610   22.8858  -72.2025 H         1 UNK         0.0807 
    120 H120      -80.9167   23.4552  -72.0991 H         1 UNK         0.0807 
    121 H121      -79.6378   24.5521  -72.6218 H         1 UNK         0.0807 
    122 H122      -81.5060   24.7864  -74.2274 H         1 UNK         0.2946 
    123 H123      -82.7779   24.9120  -77.4153 H         1 UNK         0.1144 
    124 H124      -85.1155   24.8542  -76.5568 H         1 UNK         0.0793 
    125 H125      -84.5886   23.9754  -75.1201 H         1 UNK         0.0793 
    126 H126      -84.4757   23.2269  -76.7067 H         1 UNK         0.0793 
    127 H127      -83.5582   26.2127  -74.9463 H         1 UNK         0.2896 
@<TRIPOS>BOND
     1    1    2 1    
     2    1   67 1    
     3    1   68 1    
     4    1   69 1    
     5    2    3 2    
     6    2    4 am   BACKBONE|DICT|INTERRES
     7    4    5 1    
     8    4   70 1    
     9    5    6 1    
    10    5   65 1    
    11    5   71 1    
    12    6    7 1    
    13    6   72 1    
    14    6   73 1    
    15    7    8 1    
    16    8    9 1    
    17    8   74 1    
    18    8   75 1    
    19    9   10 ar   
    20    9   14 ar   
    21   10   11 ar   
    22   10   76 1    
    23   11   12 ar   
    24   11   48 1    
    25   12   13 ar   
    26   12   77 1    
    27   13   14 ar   
    28   13   15 1    
    29   14   78 1    
    30   15   16 1    
    31   15   79 1    
    32   15   80 1    
    33   16   17 1    
    34   17   18 1    
    35   17   81 1    
    36   17   82 1    
    37   18   19 1    
    38   18   22 1    
    39   18   83 1    
    40   19   20 am   BACKBONE|DICT|INTERRES
    41   19   21 2    
    42   20   84 1    
    43   20   85 1    
    44   22   23 am   BACKBONE|DICT|INTERRES
    45   22   86 1    
    46   23   24 2    
    47   23   25 1    
    48   25   26 1    
    49   25   27 1    
    50   25   87 1    
    51   26   88 1    
    52   26   89 1    
    53   26   90 1    
    54   27   28 am   BACKBONE|DICT|INTERRES
    55   27   91 1    
    56   28   29 2    
    57   28   30 1    
    58   30   31 1    
    59   30   32 1    
    60   30   92 1    
    61   31   93 1    
    62   31   94 1    
    63   31   95 1    
    64   32   33 am   BACKBONE|DICT|INTERRES
    65   32   96 1    
    66   33   34 2    
    67   33   35 1    
    68   35   36 1    
    69   35   37 1    
    70   35   97 1    
    71   36   98 1    
    72   36   99 1    
    73   36  100 1    
    74   37   38 am   BACKBONE|DICT|INTERRES
    75   37  101 1    
    76   38   39 2    
    77   38   40 1    
    78   40   41 1    
    79   40   42 1    
    80   40  102 1    
    81   41  103 1    
    82   41  104 1    
    83   41  105 1    
    84   42   43 am   BACKBONE|DICT|INTERRES
    85   42  106 1    
    86   43   44 2    
    87   43   45 1    
    88   45   46 1    
    89   45   49 1    
    90   45  107 1    
    91   46   47 1    
    92   46  108 1    
    93   46  109 1    
    94   47   48 1    
    95   48  110 1    
    96   48  111 1    
    97   49   50 am   BACKBONE|DICT|INTERRES
    98   49  112 1    
    99   50   51 2    
   100   50   52 1    
   101   52   53 1    
   102   52   54 1    
   103   52  113 1    
   104   53  114 1    
   105   53  115 1    
   106   53  116 1    
   107   54   55 am   BACKBONE|DICT|INTERRES
   108   54  117 1    
   109   55   56 2    
   110   55   57 1    
   111   57   58 1    
   112   57   59 1    
   113   57  118 1    
   114   58  119 1    
   115   58  120 1    
   116   58  121 1    
   117   59   60 am   BACKBONE|DICT|INTERRES
   118   59  122 1    
   119   60   61 2    
   120   60   62 1    
   121   62   63 1    
   122   62   64 1    
   123   62  123 1    
   124   63  124 1    
   125   63  125 1    
   126   63  126 1    
   127   64   65 am   BACKBONE|DICT|INTERRES
   128   64  127 1    
   129   65   66 2    
@<TRIPOS>SUBSTRUCTURE
     1 UNK         1 GROUP             0       ****    0 ROOT    
