@<TRIPOS>MOLECULE
3R135
127   129    1
SMALL
USER_CHARGES


@<TRIPOS>ATOM
      1 CA        -84.0513   26.8203  -70.6487 C.3       0 UNK        -0.1998 
      2 C         -83.7517   27.2564  -72.0750 C.2       0 UNK         0.4909 
      3 O         -84.6196   27.1534  -72.9423 O.2       0 UNK        -0.5240 
      4 N         -82.5293   27.7460  -72.3209 N.am      1 UNK        -0.4739 
      5 CA        -82.0525   28.1959  -73.6360 C.3       1 UNK         0.0864 
      6 C6        -80.7625   29.0443  -73.5227 C.3       11 UNK        -0.0881 
      7 S7        -81.0304   30.6252  -72.6417 S.3       11 UNK        -0.2682 
      8 C8        -80.6201   30.2417  -70.9040 C.3       11 UNK         0.0289 
      9 C9        -79.1817   29.7773  -70.7356 C.ar      11 UNK        -0.0687 
     10 C10       -78.8970   28.4202  -70.5582 C.ar      11 UNK        -0.0823 
     11 C11       -77.5741   27.9786  -70.4744 C.ar      11 UNK        -0.0830 
     12 C12       -76.5342   28.9110  -70.5060 C.ar      11 UNK        -0.1021 
     13 C13       -76.8066   30.2708  -70.6753 C.ar      11 UNK        -0.0753 
     14 C14       -78.1327   30.7001  -70.7841 C.ar      11 UNK        -0.0933 
     15 C15       -75.6667   31.2727  -70.7682 C.3       11 UNK         0.0166 
     16 S16       -75.3222   31.7472  -72.4937 S.3       11 UNK        -0.2615 
     17 C17       -74.6106   30.2203  -73.2058 C.3       11 UNK        -0.0865 
     18 CA        -73.0944   30.3503  -73.5234 C.3       10 UNK         0.0862 
     19 C         -72.1865   29.9299  -72.3257 C.2       10 UNK         0.5551 
     20 N         -71.2432   29.0079  -72.4837 N.am      10 UNK        -0.7319 
     21 O         -72.3263   30.4612  -71.2281 O.2       10 UNK        -0.5018 
     22 N         -72.7648   29.6820  -74.7915 N.am      10 UNK        -0.4509 
     23 C         -71.7518   30.0386  -75.5920 C.2       10 UNK         0.4899 
     24 O         -71.0387   31.0244  -75.3954 O.2       10 UNK        -0.4839 
     25 CA        -71.4885   29.1310  -76.8084 C.3       9 UNK         0.0222 
     26 CB        -70.1177   29.3905  -77.4685 C.3       9 UNK        -0.1966 
     27 N         -71.6536   27.7035  -76.5097 N.am      9 UNK        -0.4218 
     28 C         -70.9983   26.9801  -75.5866 C.2       9 UNK         0.5020 
     29 O         -70.1555   27.4583  -74.8258 O.2       9 UNK        -0.5274 
     30 CA        -71.3448   25.4826  -75.4492 C.3       8 UNK         0.0270 
     31 CB        -71.8527   25.1762  -74.0295 C.3       8 UNK        -0.1976 
     32 N         -72.3327   25.0064  -76.4214 N.am      8 UNK        -0.4313 
     33 C         -72.0952   24.7870  -77.7218 C.2       8 UNK         0.5041 
     34 O         -70.9801   24.8675  -78.2374 O.2       8 UNK        -0.5577 
     35 CA        -73.3177   24.4849  -78.6067 C.3       7 UNK         0.0284 
     36 CB        -73.6299   22.9804  -78.6044 C.3       7 UNK        -0.1958 
     37 N         -74.5127   25.2428  -78.2147 N.am      7 UNK        -0.4454 
     38 C         -74.6142   26.5806  -78.2400 C.2       7 UNK         0.5089 
     39 O         -73.7185   27.3236  -78.6385 O.2       7 UNK        -0.5125 
     40 CA        -75.9004   27.2008  -77.6679 C.3       6 UNK         0.0408 
     41 CB        -77.0546   27.1192  -78.6786 C.3       6 UNK        -0.1791 
     42 N         -76.2966   26.5804  -76.4031 N.am      6 UNK        -0.4762 
     43 C         -75.6005   26.6680  -75.2587 C.2       6 UNK         0.5007 
     44 O         -74.5868   27.3556  -75.1199 O.2       6 UNK        -0.5032 
     45 CA        -76.1085   25.8096  -74.0845 C.3       5 UNK         0.0783 
     46 C46       -77.1912   26.5743  -73.2886 C.3       11 UNK        -0.0857 
     47 S47       -77.8874   25.6092  -71.8980 S.3       11 UNK        -0.2512 
     48 C48       -77.2611   26.4896  -70.4256 C.3       11 UNK         0.0225 
     49 N         -76.5763   24.5029  -74.5555 N.am      5 UNK        -0.4615 
     50 C         -75.7797   23.5328  -75.0222 C.2       4 UNK         0.5053 
     51 O         -74.5559   23.6322  -75.0925 O.2       4 UNK        -0.5105 
     52 CA        -76.4647   22.2534  -75.5332 C.3       4 UNK         0.0263 
     53 CB        -76.7339   21.2872  -74.3690 C.3       4 UNK        -0.1981 
     54 N         -77.7167   22.5245  -76.2437 N.am      4 UNK        -0.4224 
     55 C         -77.8064   23.2165  -77.3890 C.2       3 UNK         0.4895 
     56 O         -76.8316   23.6325  -78.0122 O.2       3 UNK        -0.5091 
     57 CA        -79.2192   23.5489  -77.9004 C.3       3 UNK         0.0250 
     58 CB        -79.7059   22.4660  -78.8759 C.3       3 UNK        -0.1996 
     59 N         -80.2079   23.7282  -76.8307 N.am      3 UNK        -0.4254 
     60 C         -80.1318   24.6550  -75.8648 C.2       2 UNK         0.5004 
     61 O         -79.2046   25.4622  -75.7633 O.2       2 UNK        -0.5226 
     62 CA        -81.2379   24.6022  -74.7972 C.3       2 UNK         0.0269 
     63 CB        -80.9307   23.4956  -73.7734 C.3       2 UNK        -0.1926 
     64 N         -81.4148   25.8635  -74.0750 N.am      2 UNK        -0.4687 
     65 C         -81.8530   27.0133  -74.6091 C.2       1 UNK         0.5165 
     66 O         -82.1388   27.1523  -75.7996 O.2       1 UNK        -0.5079 
     67 H67       -83.2008   26.9775  -69.9855 H         1 UNK         0.0900 
     68 H68       -84.8966   27.3836  -70.2543 H         1 UNK         0.0900 
     69 H69       -84.3072   25.7614  -70.6265 H         1 UNK         0.0900 
     70 H70       -81.8655   27.8177  -71.5658 H         1 UNK         0.2959 
     71 H71       -82.8313   28.8265  -74.0716 H         1 UNK         0.1079 
     72 H72       -80.3984   29.3028  -74.5192 H         1 UNK         0.0837 
     73 H73       -79.9566   28.4749  -73.0599 H         1 UNK         0.0837 
     74 H74       -80.7782   31.1393  -70.3045 H         1 UNK         0.0685 
     75 H75       -81.3167   29.4987  -70.5155 H         1 UNK         0.0685 
     76 H76       -79.6992   27.6961  -70.5366 H         1 UNK         0.1434 
     77 H77       -75.5084   28.5751  -70.4377 H         1 UNK         0.1329 
     78 H78       -78.3471   31.7496  -70.9333 H         1 UNK         0.1335 
     79 H79       -74.7632   30.8749  -70.3053 H         1 UNK         0.0680 
     80 H80       -75.9265   32.1691  -70.2034 H         1 UNK         0.0680 
     81 H81       -74.8084   29.3543  -72.5752 H         1 UNK         0.1032 
     82 H82       -75.1731   30.0323  -74.1220 H         1 UNK         0.1032 
     83 H83       -72.8857   31.4111  -73.6752 H         1 UNK         0.0461 
     84 H84       -71.0610   28.5849  -73.3863 H         1 UNK         0.3453 
     85 H85       -70.6669   28.7625  -71.6950 H         1 UNK         0.3453 
     86 H86       -73.2949   28.8414  -75.0056 H         1 UNK         0.2984 
     87 H87       -72.2578   29.3797  -77.5404 H         1 UNK         0.0554 
     88 H88       -70.0355   30.4232  -77.8094 H         1 UNK         0.0847 
     89 H89       -69.9703   28.7512  -78.3389 H         1 UNK         0.0847 
     90 H90       -69.2947   29.2099  -76.7762 H         1 UNK         0.0847 
     91 H91       -72.3509   27.2341  -77.0766 H         1 UNK         0.3141 
     92 H92       -70.4187   24.9256  -75.6049 H         1 UNK         0.0743 
     93 H93       -72.7669   25.7247  -73.8025 H         1 UNK         0.0784 
     94 H94       -72.0582   24.1132  -73.9016 H         1 UNK         0.0784 
     95 H95       -71.1126   25.4530  -73.2775 H         1 UNK         0.0784 
     96 H96       -73.2661   24.8239  -76.0640 H         1 UNK         0.3213 
     97 H97       -73.0644   24.7783  -79.6277 H         1 UNK         0.0855 
     98 H98       -73.9033   22.6265  -77.6104 H         1 UNK         0.0814 
     99 H99       -72.7644   22.4019  -78.9302 H         1 UNK         0.0814 
    100 H100      -74.4511   22.7443  -79.2814 H         1 UNK         0.0814 
    101 H101      -75.3282   24.6980  -77.9394 H         1 UNK         0.3105 
    102 H102      -75.7020   28.2564  -77.4701 H         1 UNK         0.0547 
    103 H103      -76.7997   27.6442  -79.6000 H         1 UNK         0.0837 
    104 H104      -77.2900   26.0901  -78.9482 H         1 UNK         0.0837 
    105 H105      -77.9614   27.5779  -78.2841 H         1 UNK         0.0837 
    106 H106      -77.1401   26.0178  -76.4058 H         1 UNK         0.3020 
    107 H107      -75.2595   25.6385  -73.4189 H         1 UNK         0.1245 
    108 H108      -78.0231   26.8552  -73.9359 H         1 UNK         0.0781 
    109 H109      -76.7781   27.5155  -72.9267 H         1 UNK         0.0781 
    110 H110      -76.1866   26.3180  -70.3454 H         1 UNK         0.0836 
    111 H111      -77.7107   26.0557  -69.5316 H         1 UNK         0.0836 
    112 H112      -77.5789   24.3795  -74.5806 H         1 UNK         0.3022 
    113 H113      -75.7814   21.7664  -76.2318 H         1 UNK         0.0747 
    114 H114      -77.1479   20.3432  -74.7238 H         1 UNK         0.0793 
    115 H115      -75.8110   21.0541  -73.8359 H         1 UNK         0.0793 
    116 H116      -77.4310   21.7096  -73.6437 H         1 UNK         0.0793 
    117 H117      -78.5699   22.2100  -75.8064 H         1 UNK         0.3047 
    118 H118      -79.1528   24.4933  -78.4443 H         1 UNK         0.0822 
    119 H119      -80.6631   22.7349  -79.3231 H         1 UNK         0.0807 
    120 H120      -79.8234   21.4997  -78.3838 H         1 UNK         0.0807 
    121 H121      -78.9962   22.3309  -79.6936 H         1 UNK         0.0807 
    122 H122      -80.9944   23.0941  -76.8363 H         1 UNK         0.2946 
    123 H123      -82.1822   24.3732  -75.2964 H         1 UNK         0.1144 
    124 H124      -81.7226   23.4137  -73.0284 H         1 UNK         0.0793 
    125 H125      -79.9941   23.6826  -73.2462 H         1 UNK         0.0793 
    126 H126      -80.8449   22.5207  -74.2548 H         1 UNK         0.0793 
    127 H127      -81.1920   25.8532  -73.0912 H         1 UNK         0.2896 
@<TRIPOS>BOND
     1    1    2 1    
     2    1   67 1    
     3    1   68 1    
     4    1   69 1    
     5    2    3 2    
     6    2    4 am   BACKBONE|DICT|INTERRES
     7    4    5 1    
     8    4   70 1    
     9    5    6 1    
    10    5   65 1    
    11    5   71 1    
    12    6    7 1    
    13    6   72 1    
    14    6   73 1    
    15    7    8 1    
    16    8    9 1    
    17    8   74 1    
    18    8   75 1    
    19    9   10 ar   
    20    9   14 ar   
    21   10   11 ar   
    22   10   76 1    
    23   11   12 ar   
    24   11   48 1    
    25   12   13 ar   
    26   12   77 1    
    27   13   14 ar   
    28   13   15 1    
    29   14   78 1    
    30   15   16 1    
    31   15   79 1    
    32   15   80 1    
    33   16   17 1    
    34   17   18 1    
    35   17   81 1    
    36   17   82 1    
    37   18   19 1    
    38   18   22 1    
    39   18   83 1    
    40   19   20 am   BACKBONE|DICT|INTERRES
    41   19   21 2    
    42   20   84 1    
    43   20   85 1    
    44   22   23 am   BACKBONE|DICT|INTERRES
    45   22   86 1    
    46   23   24 2    
    47   23   25 1    
    48   25   26 1    
    49   25   27 1    
    50   25   87 1    
    51   26   88 1    
    52   26   89 1    
    53   26   90 1    
    54   27   28 am   BACKBONE|DICT|INTERRES
    55   27   91 1    
    56   28   29 2    
    57   28   30 1    
    58   30   31 1    
    59   30   32 1    
    60   30   92 1    
    61   31   93 1    
    62   31   94 1    
    63   31   95 1    
    64   32   33 am   BACKBONE|DICT|INTERRES
    65   32   96 1    
    66   33   34 2    
    67   33   35 1    
    68   35   36 1    
    69   35   37 1    
    70   35   97 1    
    71   36   98 1    
    72   36   99 1    
    73   36  100 1    
    74   37   38 am   BACKBONE|DICT|INTERRES
    75   37  101 1    
    76   38   39 2    
    77   38   40 1    
    78   40   41 1    
    79   40   42 1    
    80   40  102 1    
    81   41  103 1    
    82   41  104 1    
    83   41  105 1    
    84   42   43 am   BACKBONE|DICT|INTERRES
    85   42  106 1    
    86   43   44 2    
    87   43   45 1    
    88   45   46 1    
    89   45   49 1    
    90   45  107 1    
    91   46   47 1    
    92   46  108 1    
    93   46  109 1    
    94   47   48 1    
    95   48  110 1    
    96   48  111 1    
    97   49   50 am   BACKBONE|DICT|INTERRES
    98   49  112 1    
    99   50   51 2    
   100   50   52 1    
   101   52   53 1    
   102   52   54 1    
   103   52  113 1    
   104   53  114 1    
   105   53  115 1    
   106   53  116 1    
   107   54   55 am   BACKBONE|DICT|INTERRES
   108   54  117 1    
   109   55   56 2    
   110   55   57 1    
   111   57   58 1    
   112   57   59 1    
   113   57  118 1    
   114   58  119 1    
   115   58  120 1    
   116   58  121 1    
   117   59   60 am   BACKBONE|DICT|INTERRES
   118   59  122 1    
   119   60   61 2    
   120   60   62 1    
   121   62   63 1    
   122   62   64 1    
   123   62  123 1    
   124   63  124 1    
   125   63  125 1    
   126   63  126 1    
   127   64   65 am   BACKBONE|DICT|INTERRES
   128   64  127 1    
   129   65   66 2    
@<TRIPOS>SUBSTRUCTURE
     1 UNK         1 GROUP             0       ****    0 ROOT    
