@<TRIPOS>MOLECULE
3R135
127   129    1
SMALL
USER_CHARGES


@<TRIPOS>ATOM
      1 CA        -82.0283   30.5510  -74.4173 C.3       0 UNK        -0.1998 
      2 C         -80.7670   29.7013  -74.4357 C.2       0 UNK         0.4909 
      3 O         -79.7073   30.1870  -74.8285 O.2       0 UNK        -0.5240 
      4 N         -80.8747   28.4336  -74.0162 N.am      1 UNK        -0.4739 
      5 CA        -79.7590   27.4795  -73.9358 C.3       1 UNK         0.0864 
      6 C6        -80.0835   26.3025  -72.9790 C.3       11 UNK        -0.0881 
      7 S7        -80.5960   26.7174  -71.2693 S.3       11 UNK        -0.2682 
      8 C8        -79.7098   28.2582  -70.8343 C.3       11 UNK         0.0289 
      9 C9        -78.1892   28.1914  -70.9648 C.ar      11 UNK        -0.0687 
     10 C10       -77.4743   27.0155  -70.7071 C.ar      11 UNK        -0.0823 
     11 C11       -76.0863   26.9770  -70.8667 C.ar      11 UNK        -0.0830 
     12 C12       -75.4070   28.1300  -71.2707 C.ar      11 UNK        -0.1021 
     13 C13       -76.1033   29.3188  -71.5071 C.ar      11 UNK        -0.0753 
     14 C14       -77.4918   29.3421  -71.3461 C.ar      11 UNK        -0.0933 
     15 C15       -75.3567   30.5764  -71.9318 C.3       11 UNK         0.0166 
     16 S16       -75.8594   31.1201  -73.5928 S.3       11 UNK        -0.2615 
     17 C17       -74.5513   32.3250  -74.0055 C.3       11 UNK        -0.0865 
     18 CA        -73.5069   31.6949  -74.9685 C.3       10 UNK         0.0862 
     19 C         -72.7127   32.7285  -75.8269 C.2       10 UNK         0.5551 
     20 N         -71.5612   32.3619  -76.3776 N.am      10 UNK        -0.7319 
     21 O         -73.1513   33.8588  -76.0267 O.2       10 UNK        -0.5018 
     22 N         -72.6849   30.6716  -74.2989 N.am      10 UNK        -0.4509 
     23 C         -71.6337   30.8744  -73.4904 C.2       10 UNK         0.4899 
     24 O         -71.2457   31.9882  -73.1370 O.2       10 UNK        -0.4839 
     25 CA        -70.8695   29.6318  -72.9854 C.3       9 UNK         0.0222 
     26 CB        -71.0868   29.4411  -71.4748 C.3       9 UNK        -0.1966 
     27 N         -71.2244   28.3881  -73.6754 N.am      9 UNK        -0.4218 
     28 C         -70.9691   28.0929  -74.9580 C.2       9 UNK         0.5020 
     29 O         -70.3066   28.8087  -75.7106 O.2       9 UNK        -0.5274 
     30 CA        -71.6033   26.7983  -75.5057 C.3       8 UNK         0.0270 
     31 CB        -71.7031   25.6778  -74.4485 C.3       8 UNK        -0.1976 
     32 N         -72.9149   27.0289  -76.1280 N.am      8 UNK        -0.4313 
     33 C         -73.9793   27.6538  -75.6030 C.2       8 UNK         0.5041 
     34 O         -74.0026   28.1414  -74.4753 O.2       8 UNK        -0.5577 
     35 CA        -75.2370   27.7617  -76.4775 C.3       7 UNK         0.0284 
     36 CB        -74.9980   28.5962  -77.7522 C.3       7 UNK        -0.1958 
     37 N         -75.8330   26.4563  -76.7695 N.am      7 UNK        -0.4454 
     38 C         -75.3425   25.4542  -77.5113 C.2       7 UNK         0.5089 
     39 O         -74.2934   25.5185  -78.1565 O.2       7 UNK        -0.5125 
     40 CA        -76.1689   24.1549  -77.4856 C.3       6 UNK         0.0408 
     41 CB        -75.5114   22.9952  -78.2626 C.3       6 UNK        -0.1791 
     42 N         -76.5065   23.7539  -76.1137 N.am      6 UNK        -0.4762 
     43 C         -75.6491   23.4316  -75.1296 C.2       6 UNK         0.5007 
     44 O         -74.4296   23.3500  -75.2764 O.2       6 UNK        -0.5032 
     45 CA        -76.2684   23.1228  -73.7501 C.3       5 UNK         0.0783 
     46 C46       -76.3889   24.3965  -72.8760 C.3       11 UNK        -0.0857 
     47 S47       -74.7923   24.8797  -72.1384 S.3       11 UNK        -0.2512 
     48 C48       -75.3178   25.6915  -70.5970 C.3       11 UNK         0.0225 
     49 N         -77.5578   22.4404  -73.8903 N.am      5 UNK        -0.4615 
     50 C         -77.7078   21.1563  -74.2352 C.2       4 UNK         0.5053 
     51 O         -76.7677   20.3775  -74.3937 O.2       4 UNK        -0.5105 
     52 CA        -79.1459   20.6534  -74.4556 C.3       4 UNK         0.0263 
     53 CB        -79.9494   20.6344  -73.1389 C.3       4 UNK        -0.1981 
     54 N         -79.8671   21.3589  -75.5267 N.am      4 UNK        -0.4224 
     55 C         -80.2499   22.6424  -75.5627 C.2       3 UNK         0.4895 
     56 O         -80.0508   23.4492  -74.6506 O.2       3 UNK        -0.5091 
     57 CA        -80.9908   23.0969  -76.8268 C.3       3 UNK         0.0250 
     58 CB        -82.4883   22.7662  -76.7159 C.3       3 UNK        -0.1996 
     59 N         -80.8358   24.5427  -76.9636 N.am      3 UNK        -0.4254 
     60 C         -80.1127   25.1668  -77.8998 C.2       2 UNK         0.5004 
     61 O         -79.6008   24.5996  -78.8649 O.2       2 UNK        -0.5226 
     62 CA        -79.9125   26.6844  -77.7280 C.3       2 UNK         0.0269 
     63 CB        -80.8275   27.4617  -78.6877 C.3       2 UNK        -0.1926 
     64 N         -80.1463   27.1566  -76.3580 N.am      2 UNK        -0.4687 
     65 C         -79.3302   26.9319  -75.3168 C.2       1 UNK         0.5165 
     66 O         -78.2793   26.2969  -75.4156 O.2       1 UNK        -0.5079 
     67 H67       -81.8776   31.4308  -73.7922 H         1 UNK         0.0900 
     68 H68       -82.8852   30.0017  -74.0274 H         1 UNK         0.0900 
     69 H69       -82.2697   30.8866  -75.4255 H         1 UNK         0.0900 
     70 H70       -81.7665   28.0896  -73.6883 H         1 UNK         0.2959 
     71 H71       -78.8843   28.0090  -73.5558 H         1 UNK         0.1079 
     72 H72       -80.8788   25.6872  -73.4037 H         1 UNK         0.0837 
     73 H73       -79.2183   25.6423  -72.8972 H         1 UNK         0.0837 
     74 H74       -80.1084   29.0735  -71.4387 H         1 UNK         0.0685 
     75 H75       -79.9500   28.5068  -69.8000 H         1 UNK         0.0685 
     76 H76       -77.9983   26.1237  -70.3933 H         1 UNK         0.1434 
     77 H77       -74.3353   28.0959  -71.4085 H         1 UNK         0.1329 
     78 H78       -78.0307   30.2600  -71.5389 H         1 UNK         0.1335 
     79 H79       -75.5487   31.3758  -71.2150 H         1 UNK         0.0680 
     80 H80       -74.2808   30.3999  -71.9233 H         1 UNK         0.0680 
     81 H81       -74.0741   32.7090  -73.1026 H         1 UNK         0.1032 
     82 H82       -75.0513   33.1773  -74.4683 H         1 UNK         0.1032 
     83 H83       -74.0702   31.1442  -75.7220 H         1 UNK         0.0461 
     84 H84       -71.0487   33.0221  -76.9406 H         1 UNK         0.3453 
     85 H85       -71.1944   31.4350  -76.2223 H         1 UNK         0.3453 
     86 H86       -72.9935   29.7128  -74.4439 H         1 UNK         0.2984 
     87 H87       -69.8072   29.8159  -73.1575 H         1 UNK         0.0554 
     88 H88       -70.4888   28.6158  -71.0879 H         1 UNK         0.0847 
     89 H89       -72.1317   29.2391  -71.2385 H         1 UNK         0.0847 
     90 H90       -70.7958   30.3351  -70.9214 H         1 UNK         0.0847 
     91 H91       -71.8500   27.7655  -73.1835 H         1 UNK         0.3141 
     92 H92       -70.9431   26.4426  -76.2982 H         1 UNK         0.0743 
     93 H93       -72.4332   25.9047  -73.6719 H         1 UNK         0.0784 
     94 H94       -72.0040   24.7362  -74.9082 H         1 UNK         0.0784 
     95 H95       -70.7420   25.5055  -73.9622 H         1 UNK         0.0784 
     96 H96       -73.0485   26.6195  -77.0486 H         1 UNK         0.3213 
     97 H97       -75.9821   28.2930  -75.8817 H         1 UNK         0.0855 
     98 H98       -74.6280   29.5903  -77.5008 H         1 UNK         0.0814 
     99 H99       -75.9229   28.7291  -78.3133 H         1 UNK         0.0814 
    100 H100      -74.2663   28.1410  -78.4196 H         1 UNK         0.0814 
    101 H101      -76.6954   26.2725  -76.2560 H         1 UNK         0.3105 
    102 H102      -77.1119   24.3842  -77.9803 H         1 UNK         0.0547 
    103 H103      -75.3728   23.2612  -79.3111 H         1 UNK         0.0837 
    104 H104      -74.5298   22.7395  -77.8628 H         1 UNK         0.0837 
    105 H105      -76.1298   22.0983  -78.2347 H         1 UNK         0.0837 
    106 H106      -77.4837   23.8296  -75.8660 H         1 UNK         0.3020 
    107 H107      -75.5918   22.4281  -73.2459 H         1 UNK         0.1245 
    108 H108      -77.0908   24.2154  -72.0605 H         1 UNK         0.0781 
    109 H109      -76.7921   25.2401  -73.4391 H         1 UNK         0.0781 
    110 H110      -74.4332   25.9193  -70.0007 H         1 UNK         0.0836 
    111 H111      -75.9127   24.9961  -70.0026 H         1 UNK         0.0836 
    112 H112      -78.3991   23.0101  -73.8476 H         1 UNK         0.3022 
    113 H113      -79.0631   19.6186  -74.7927 H         1 UNK         0.0747 
    114 H114      -80.9360   20.1949  -73.2855 H         1 UNK         0.0793 
    115 H115      -79.4389   20.0376  -72.3819 H         1 UNK         0.0793 
    116 H116      -80.0885   21.6322  -72.7220 H         1 UNK         0.0793 
    117 H117      -80.0682   20.7915  -76.3392 H         1 UNK         0.3047 
    118 H118      -80.5702   22.5786  -77.6913 H         1 UNK         0.0822 
    119 H119      -83.0329   23.1019  -77.5987 H         1 UNK         0.0807 
    120 H120      -82.9436   23.2373  -75.8435 H         1 UNK         0.0807 
    121 H121      -82.6487   21.6910  -76.6270 H         1 UNK         0.0807 
    122 H122      -81.1517   25.0879  -76.1745 H         1 UNK         0.2946 
    123 H123      -78.8747   26.9025  -77.9911 H         1 UNK         0.1144 
    124 H124      -80.6564   27.1584  -79.7218 H         1 UNK         0.0793 
    125 H125      -80.6411   28.5344  -78.6321 H         1 UNK         0.0793 
    126 H126      -81.8822   27.2908  -78.4683 H         1 UNK         0.0793 
    127 H127      -80.9848   27.6948  -76.1941 H         1 UNK         0.2896 
@<TRIPOS>BOND
     1    1    2 1    
     2    1   67 1    
     3    1   68 1    
     4    1   69 1    
     5    2    3 2    
     6    2    4 am   BACKBONE|DICT|INTERRES
     7    4    5 1    
     8    4   70 1    
     9    5    6 1    
    10    5   65 1    
    11    5   71 1    
    12    6    7 1    
    13    6   72 1    
    14    6   73 1    
    15    7    8 1    
    16    8    9 1    
    17    8   74 1    
    18    8   75 1    
    19    9   10 ar   
    20    9   14 ar   
    21   10   11 ar   
    22   10   76 1    
    23   11   12 ar   
    24   11   48 1    
    25   12   13 ar   
    26   12   77 1    
    27   13   14 ar   
    28   13   15 1    
    29   14   78 1    
    30   15   16 1    
    31   15   79 1    
    32   15   80 1    
    33   16   17 1    
    34   17   18 1    
    35   17   81 1    
    36   17   82 1    
    37   18   19 1    
    38   18   22 1    
    39   18   83 1    
    40   19   20 am   BACKBONE|DICT|INTERRES
    41   19   21 2    
    42   20   84 1    
    43   20   85 1    
    44   22   23 am   BACKBONE|DICT|INTERRES
    45   22   86 1    
    46   23   24 2    
    47   23   25 1    
    48   25   26 1    
    49   25   27 1    
    50   25   87 1    
    51   26   88 1    
    52   26   89 1    
    53   26   90 1    
    54   27   28 am   BACKBONE|DICT|INTERRES
    55   27   91 1    
    56   28   29 2    
    57   28   30 1    
    58   30   31 1    
    59   30   32 1    
    60   30   92 1    
    61   31   93 1    
    62   31   94 1    
    63   31   95 1    
    64   32   33 am   BACKBONE|DICT|INTERRES
    65   32   96 1    
    66   33   34 2    
    67   33   35 1    
    68   35   36 1    
    69   35   37 1    
    70   35   97 1    
    71   36   98 1    
    72   36   99 1    
    73   36  100 1    
    74   37   38 am   BACKBONE|DICT|INTERRES
    75   37  101 1    
    76   38   39 2    
    77   38   40 1    
    78   40   41 1    
    79   40   42 1    
    80   40  102 1    
    81   41  103 1    
    82   41  104 1    
    83   41  105 1    
    84   42   43 am   BACKBONE|DICT|INTERRES
    85   42  106 1    
    86   43   44 2    
    87   43   45 1    
    88   45   46 1    
    89   45   49 1    
    90   45  107 1    
    91   46   47 1    
    92   46  108 1    
    93   46  109 1    
    94   47   48 1    
    95   48  110 1    
    96   48  111 1    
    97   49   50 am   BACKBONE|DICT|INTERRES
    98   49  112 1    
    99   50   51 2    
   100   50   52 1    
   101   52   53 1    
   102   52   54 1    
   103   52  113 1    
   104   53  114 1    
   105   53  115 1    
   106   53  116 1    
   107   54   55 am   BACKBONE|DICT|INTERRES
   108   54  117 1    
   109   55   56 2    
   110   55   57 1    
   111   57   58 1    
   112   57   59 1    
   113   57  118 1    
   114   58  119 1    
   115   58  120 1    
   116   58  121 1    
   117   59   60 am   BACKBONE|DICT|INTERRES
   118   59  122 1    
   119   60   61 2    
   120   60   62 1    
   121   62   63 1    
   122   62   64 1    
   123   62  123 1    
   124   63  124 1    
   125   63  125 1    
   126   63  126 1    
   127   64   65 am   BACKBONE|DICT|INTERRES
   128   64  127 1    
   129   65   66 2    
@<TRIPOS>SUBSTRUCTURE
     1 UNK         1 GROUP             0       ****    0 ROOT    
