@<TRIPOS>MOLECULE
3R135
127   129    1
SMALL
USER_CHARGES


@<TRIPOS>ATOM
      1 CA        -77.8073   25.8335  -68.2341 C.3       0 UNK        -0.1998 
      2 C         -78.5719   26.5335  -69.3460 C.2       0 UNK         0.4909 
      3 O         -78.0054   26.7988  -70.4054 O.2       0 UNK        -0.5240 
      4 N         -79.8668   26.8096  -69.1271 N.am      1 UNK        -0.4739 
      5 CA        -80.7626   27.5699  -70.0194 C.3       1 UNK         0.0864 
      6 C6        -80.2625   29.0319  -70.1983 C.3       11 UNK        -0.0881 
      7 S7        -81.5902   30.2161  -70.6141 S.3       11 UNK        -0.2682 
      8 C8        -80.7183   31.4275  -71.6646 C.3       11 UNK         0.0289 
      9 C9        -79.9758   30.7932  -72.8359 C.ar      11 UNK        -0.0687 
     10 C10       -80.6625   30.0359  -73.7917 C.ar      11 UNK        -0.0823 
     11 C11       -79.9792   29.4427  -74.8591 C.ar      11 UNK        -0.0830 
     12 C12       -78.6040   29.6527  -74.9829 C.ar      11 UNK        -0.1021 
     13 C13       -77.8988   30.3778  -74.0197 C.ar      11 UNK        -0.0753 
     14 C14       -78.5910   30.9532  -72.9517 C.ar      11 UNK        -0.0933 
     15 C15       -76.3892   30.5265  -74.1367 C.3       11 UNK         0.0166 
     16 S16       -75.5603   28.9073  -74.2157 S.3       11 UNK        -0.2615 
     17 C17       -75.6746   28.3066  -72.4907 C.3       11 UNK        -0.0865 
     18 CA        -74.2677   28.0248  -71.8961 C.3       10 UNK         0.0862 
     19 C         -74.3164   27.6414  -70.3895 C.2       10 UNK         0.5551 
     20 N         -74.7307   28.5673  -69.5344 N.am      10 UNK        -0.7319 
     21 O         -73.9849   26.5305  -69.9802 O.2       10 UNK        -0.5018 
     22 N         -73.5381   27.0716  -72.7429 N.am      10 UNK        -0.4509 
     23 C         -72.2133   26.8885  -72.7575 C.2       10 UNK         0.4899 
     24 O         -71.4321   27.3746  -71.9389 O.2       10 UNK        -0.4839 
     25 CA        -71.6608   26.1127  -73.9678 C.3       9 UNK         0.0222 
     26 CB        -71.8580   24.5960  -73.8127 C.3       9 UNK        -0.1966 
     27 N         -72.2715   26.5851  -75.2179 N.am      9 UNK        -0.4218 
     28 C         -72.0344   27.7955  -75.7518 C.2       9 UNK         0.5020 
     29 O         -71.1740   28.5718  -75.3302 O.2       9 UNK        -0.5274 
     30 CA        -72.9160   28.2053  -76.9448 C.3       8 UNK         0.0270 
     31 CB        -72.5086   29.5472  -77.5903 C.3       8 UNK        -0.1976 
     32 N         -73.0279   27.1411  -77.9403 N.am      8 UNK        -0.4313 
     33 C         -72.0763   26.6377  -78.7380 C.2       8 UNK         0.5041 
     34 O         -70.9135   27.0406  -78.7813 O.2       8 UNK        -0.5577 
     35 CA        -72.5025   25.4717  -79.6460 C.3       7 UNK         0.0284 
     36 CB        -72.1788   24.1294  -78.9700 C.3       7 UNK        -0.1958 
     37 N         -73.9333   25.5236  -79.9670 N.am      7 UNK        -0.4454 
     38 C         -74.4588   26.2482  -80.9648 C.2       7 UNK         0.5089 
     39 O         -73.7863   26.8878  -81.7742 O.2       7 UNK        -0.5125 
     40 CA        -75.9942   26.2648  -81.0876 C.3       6 UNK         0.0408 
     41 CB        -76.4703   25.1213  -81.9975 C.3       6 UNK        -0.1791 
     42 N         -76.6842   26.1772  -79.7970 N.am      6 UNK        -0.4762 
     43 C         -76.7425   27.1668  -78.8918 C.2       6 UNK         0.5007 
     44 O         -76.2441   28.2789  -79.0629 O.2       6 UNK        -0.5032 
     45 CA        -77.4643   26.8566  -77.5606 C.3       5 UNK         0.0783 
     46 C46       -78.9610   27.2496  -77.6747 C.3       11 UNK        -0.0857 
     47 S47       -79.9296   26.9536  -76.1514 S.3       11 UNK        -0.2512 
     48 C48       -80.7300   28.5745  -75.8642 C.3       11 UNK         0.0225 
     49 N         -77.2873   25.4721  -77.0972 N.am      5 UNK        -0.4615 
     50 C         -76.1142   24.8542  -76.9065 C.2       4 UNK         0.5053 
     51 O         -75.0224   25.3525  -77.1844 O.2       4 UNK        -0.5105 
     52 CA        -76.1823   23.4480  -76.2911 C.3       4 UNK         0.0263 
     53 CB        -74.8233   22.7184  -76.3256 C.3       4 UNK        -0.1981 
     54 N         -76.7086   23.4656  -74.9237 N.am      4 UNK        -0.4224 
     55 C         -76.2604   24.1722  -73.8758 C.2       3 UNK         0.4895 
     56 O         -75.3654   25.0189  -73.9270 O.2       3 UNK        -0.5091 
     57 CA        -76.9474   23.8586  -72.5371 C.3       3 UNK         0.0250 
     58 CB        -76.0801   24.2486  -71.3307 C.3       3 UNK        -0.1996 
     59 N         -78.2525   24.5135  -72.4344 N.am      3 UNK        -0.4254 
     60 C         -79.3668   24.0867  -73.0508 C.2       2 UNK         0.5004 
     61 O         -79.3871   23.1002  -73.7902 O.2       2 UNK        -0.5226 
     62 CA        -80.6731   24.8560  -72.7859 C.3       2 UNK         0.0269 
     63 CB        -81.9026   23.9287  -72.7327 C.3       2 UNK        -0.1926 
     64 N         -80.5886   25.6280  -71.5464 N.am      2 UNK        -0.4687 
     65 C         -81.0805   26.8590  -71.3655 C.2       1 UNK         0.5165 
     66 O         -81.7908   27.4137  -72.2041 O.2       1 UNK        -0.5079 
     67 H67       -77.7448   24.7646  -68.4338 H         1 UNK         0.0900 
     68 H68       -78.2856   25.9754  -67.2653 H         1 UNK         0.0900 
     69 H69       -76.7933   26.2282  -68.1710 H         1 UNK         0.0900 
     70 H70       -80.2830   26.5261  -68.2500 H         1 UNK         0.2959 
     71 H71       -81.7160   27.6100  -69.4899 H         1 UNK         0.1079 
     72 H72       -79.8154   29.3890  -69.2693 H         1 UNK         0.0837 
     73 H73       -79.4599   29.0624  -70.9355 H         1 UNK         0.0837 
     74 H74       -81.4446   32.1429  -72.0524 H         1 UNK         0.0685 
     75 H75       -80.0330   31.9982  -71.0359 H         1 UNK         0.0685 
     76 H76       -81.7284   29.8874  -73.6829 H         1 UNK         0.1434 
     77 H77       -78.0668   29.2185  -75.8113 H         1 UNK         0.1329 
     78 H78       -78.0506   31.5212  -72.2068 H         1 UNK         0.1335 
     79 H79       -76.1606   31.0822  -75.0470 H         1 UNK         0.0680 
     80 H80       -75.9782   31.1050  -73.3079 H         1 UNK         0.0680 
     81 H81       -76.2821   27.4000  -72.4844 H         1 UNK         0.1032 
     82 H82       -76.2192   29.0335  -71.8862 H         1 UNK         0.1032 
     83 H83       -73.7050   28.9596  -71.9414 H         1 UNK         0.0461 
     84 H84       -74.9952   29.4881  -69.8458 H         1 UNK         0.3453 
     85 H85       -74.7660   28.3422  -68.5531 H         1 UNK         0.3453 
     86 H86       -74.1095   26.5560  -73.4041 H         1 UNK         0.2984 
     87 H87       -70.5867   26.3021  -74.0249 H         1 UNK         0.0554 
     88 H88       -71.3660   24.2335  -72.9094 H         1 UNK         0.0847 
     89 H89       -71.4305   24.0520  -74.6551 H         1 UNK         0.0847 
     90 H90       -72.9093   24.3229  -73.7373 H         1 UNK         0.0847 
     91 H91       -73.0103   26.0189  -75.6145 H         1 UNK         0.3141 
     92 H92       -73.9224   28.3351  -76.5472 H         1 UNK         0.0743 
     93 H93       -72.5635   30.3588  -76.8638 H         1 UNK         0.0784 
     94 H94       -71.4881   29.5229  -77.9731 H         1 UNK         0.0784 
     95 H95       -73.1726   29.8055  -78.4154 H         1 UNK         0.0784 
     96 H96       -73.9106   26.6356  -77.9172 H         1 UNK         0.3213 
     97 H97       -71.9242   25.5359  -80.5705 H         1 UNK         0.0855 
     98 H98       -71.1059   24.0319  -78.7987 H         1 UNK         0.0814 
     99 H99       -72.4865   23.2857  -79.5878 H         1 UNK         0.0814 
    100 H100      -72.6689   24.0371  -78.0008 H         1 UNK         0.0814 
    101 H101      -74.5613   25.0734  -79.3141 H         1 UNK         0.3105 
    102 H102      -76.2763   27.2090  -81.5587 H         1 UNK         0.0547 
    103 H103      -75.9920   25.1779  -82.9764 H         1 UNK         0.0837 
    104 H104      -76.2349   24.1428  -81.5771 H         1 UNK         0.0837 
    105 H105      -77.5468   25.1668  -82.1630 H         1 UNK         0.0837 
    106 H106      -77.1298   25.2988  -79.5731 H         1 UNK         0.3020 
    107 H107      -76.9944   27.4878  -76.8040 H         1 UNK         0.1245 
    108 H108      -79.4406   26.6869  -78.4782 H         1 UNK         0.0781 
    109 H109      -79.0462   28.3008  -77.9563 H         1 UNK         0.0781 
    110 H110      -81.7392   28.3771  -75.4989 H         1 UNK         0.0836 
    111 H111      -80.8522   29.1189  -76.8010 H         1 UNK         0.0836 
    112 H112      -78.1333   24.9996  -76.8129 H         1 UNK         0.3022 
    113 H113      -76.8847   22.8696  -76.8931 H         1 UNK         0.0747 
    114 H114      -74.4730   22.5997  -77.3511 H         1 UNK         0.0793 
    115 H115      -74.0547   23.2626  -75.7756 H         1 UNK         0.0793 
    116 H116      -74.8981   21.7204  -75.8941 H         1 UNK         0.0793 
    117 H117      -77.5276   22.8895  -74.7584 H         1 UNK         0.3047 
    118 H118      -77.0925   22.7769  -72.4876 H         1 UNK         0.0822 
    119 H119      -75.0835   23.8109  -71.4023 H         1 UNK         0.0807 
    120 H120      -76.5199   23.9035  -70.3959 H         1 UNK         0.0807 
    121 H121      -75.9553   25.3274  -71.2647 H         1 UNK         0.0807 
    122 H122      -78.2815   25.3693  -71.8891 H         1 UNK         0.2946 
    123 H123      -80.7923   25.5378  -73.6308 H         1 UNK         0.1144 
    124 H124      -82.8198   24.4965  -72.5756 H         1 UNK         0.0793 
    125 H125      -81.8183   23.1966  -71.9289 H         1 UNK         0.0793 
    126 H126      -82.0228   23.3790  -73.6672 H         1 UNK         0.0793 
    127 H127      -80.0364   25.2270  -70.8015 H         1 UNK         0.2896 
@<TRIPOS>BOND
     1    1    2 1    
     2    1   67 1    
     3    1   68 1    
     4    1   69 1    
     5    2    3 2    
     6    2    4 am   BACKBONE|DICT|INTERRES
     7    4    5 1    
     8    4   70 1    
     9    5    6 1    
    10    5   65 1    
    11    5   71 1    
    12    6    7 1    
    13    6   72 1    
    14    6   73 1    
    15    7    8 1    
    16    8    9 1    
    17    8   74 1    
    18    8   75 1    
    19    9   10 ar   
    20    9   14 ar   
    21   10   11 ar   
    22   10   76 1    
    23   11   12 ar   
    24   11   48 1    
    25   12   13 ar   
    26   12   77 1    
    27   13   14 ar   
    28   13   15 1    
    29   14   78 1    
    30   15   16 1    
    31   15   79 1    
    32   15   80 1    
    33   16   17 1    
    34   17   18 1    
    35   17   81 1    
    36   17   82 1    
    37   18   19 1    
    38   18   22 1    
    39   18   83 1    
    40   19   20 am   BACKBONE|DICT|INTERRES
    41   19   21 2    
    42   20   84 1    
    43   20   85 1    
    44   22   23 am   BACKBONE|DICT|INTERRES
    45   22   86 1    
    46   23   24 2    
    47   23   25 1    
    48   25   26 1    
    49   25   27 1    
    50   25   87 1    
    51   26   88 1    
    52   26   89 1    
    53   26   90 1    
    54   27   28 am   BACKBONE|DICT|INTERRES
    55   27   91 1    
    56   28   29 2    
    57   28   30 1    
    58   30   31 1    
    59   30   32 1    
    60   30   92 1    
    61   31   93 1    
    62   31   94 1    
    63   31   95 1    
    64   32   33 am   BACKBONE|DICT|INTERRES
    65   32   96 1    
    66   33   34 2    
    67   33   35 1    
    68   35   36 1    
    69   35   37 1    
    70   35   97 1    
    71   36   98 1    
    72   36   99 1    
    73   36  100 1    
    74   37   38 am   BACKBONE|DICT|INTERRES
    75   37  101 1    
    76   38   39 2    
    77   38   40 1    
    78   40   41 1    
    79   40   42 1    
    80   40  102 1    
    81   41  103 1    
    82   41  104 1    
    83   41  105 1    
    84   42   43 am   BACKBONE|DICT|INTERRES
    85   42  106 1    
    86   43   44 2    
    87   43   45 1    
    88   45   46 1    
    89   45   49 1    
    90   45  107 1    
    91   46   47 1    
    92   46  108 1    
    93   46  109 1    
    94   47   48 1    
    95   48  110 1    
    96   48  111 1    
    97   49   50 am   BACKBONE|DICT|INTERRES
    98   49  112 1    
    99   50   51 2    
   100   50   52 1    
   101   52   53 1    
   102   52   54 1    
   103   52  113 1    
   104   53  114 1    
   105   53  115 1    
   106   53  116 1    
   107   54   55 am   BACKBONE|DICT|INTERRES
   108   54  117 1    
   109   55   56 2    
   110   55   57 1    
   111   57   58 1    
   112   57   59 1    
   113   57  118 1    
   114   58  119 1    
   115   58  120 1    
   116   58  121 1    
   117   59   60 am   BACKBONE|DICT|INTERRES
   118   59  122 1    
   119   60   61 2    
   120   60   62 1    
   121   62   63 1    
   122   62   64 1    
   123   62  123 1    
   124   63  124 1    
   125   63  125 1    
   126   63  126 1    
   127   64   65 am   BACKBONE|DICT|INTERRES
   128   64  127 1    
   129   65   66 2    
@<TRIPOS>SUBSTRUCTURE
     1 UNK         1 GROUP             0       ****    0 ROOT    
