@<TRIPOS>MOLECULE
3R135
127   129    1
SMALL
USER_CHARGES


@<TRIPOS>ATOM
      1 CA        -84.5111   25.8281  -71.6783 C.3       0 UNK        -0.1998 
      2 C         -83.1859   26.3755  -71.1544 C.2       0 UNK         0.4909 
      3 O         -82.8473   26.1290  -69.9987 O.2       0 UNK        -0.5240 
      4 N         -82.4023   27.1219  -71.9469 N.am      1 UNK        -0.4739 
      5 CA        -82.6371   27.4903  -73.3534 C.3       1 UNK         0.0864 
      6 C6        -81.6985   28.6298  -73.8262 C.3       11 UNK        -0.0881 
      7 S7        -81.7503   30.0959  -72.7422 S.3       11 UNK        -0.2682 
      8 C8        -80.1590   30.8935  -73.1566 C.3       11 UNK         0.0289 
      9 C9        -78.8877   30.1966  -72.6589 C.ar      11 UNK        -0.0687 
     10 C10       -78.8972   29.0401  -71.8656 C.ar      11 UNK        -0.0823 
     11 C11       -77.7046   28.4507  -71.4353 C.ar      11 UNK        -0.0830 
     12 C12       -76.4876   29.0417  -71.7886 C.ar      11 UNK        -0.1021 
     13 C13       -76.4539   30.1949  -72.5778 C.ar      11 UNK        -0.0753 
     14 C14       -77.6576   30.7639  -73.0041 C.ar      11 UNK        -0.0933 
     15 C15       -75.1233   30.8470  -72.9362 C.3       11 UNK         0.0166 
     16 S16       -74.9163   31.0385  -74.7350 S.3       11 UNK        -0.2615 
     17 C17       -73.2199   31.7005  -74.8510 C.3       11 UNK        -0.0865 
     18 CA        -72.2229   30.6809  -75.4841 C.3       10 UNK         0.0862 
     19 C         -70.8340   31.3004  -75.8384 C.2       10 UNK         0.5551 
     20 N         -70.7953   32.5212  -76.3574 N.am      10 UNK        -0.7319 
     21 O         -69.7852   30.6727  -75.7003 O.2       10 UNK        -0.5018 
     22 N         -72.1292   29.4261  -74.7155 N.am      10 UNK        -0.4509 
     23 C         -71.6352   29.2977  -73.4763 C.2       10 UNK         0.4899 
     24 O         -71.2262   30.2427  -72.7998 O.2       10 UNK        -0.4839 
     25 CA        -71.5917   27.8895  -72.8620 C.3       9 UNK         0.0222 
     26 CB        -72.5874   27.7713  -71.6977 C.3       9 UNK        -0.1966 
     27 N         -71.8672   26.8214  -73.8275 N.am      9 UNK        -0.4218 
     28 C         -70.9155   26.0962  -74.4291 C.2       9 UNK         0.5020 
     29 O         -69.7085   26.3179  -74.3171 O.2       9 UNK        -0.5274 
     30 CA        -71.3736   24.8876  -75.2583 C.3       8 UNK         0.0270 
     31 CB        -71.7335   23.7132  -74.3331 C.3       8 UNK        -0.1976 
     32 N         -72.4926   25.1713  -76.1593 N.am      8 UNK        -0.4313 
     33 C         -72.3763   25.8729  -77.2958 C.2       8 UNK         0.5041 
     34 O         -71.3383   26.4322  -77.6519 O.2       8 UNK        -0.5577 
     35 CA        -73.6108   25.9361  -78.2104 C.3       7 UNK         0.0284 
     36 CB        -73.8257   24.5936  -78.9287 C.3       7 UNK        -0.1958 
     37 N         -74.8267   26.3138  -77.4922 N.am      7 UNK        -0.4454 
     38 C         -75.0681   27.5419  -77.0143 C.2       7 UNK         0.5089 
     39 O         -74.3206   28.5010  -77.1989 O.2       7 UNK        -0.5125 
     40 CA        -76.3427   27.7267  -76.1686 C.3       6 UNK         0.0408 
     41 CB        -77.5611   28.0067  -77.0605 C.3       6 UNK        -0.1791 
     42 N         -76.6286   26.5908  -75.2909 N.am      6 UNK        -0.4762 
     43 C         -75.8022   26.1414  -74.3341 C.2       6 UNK         0.5007 
     44 O         -74.6956   26.6232  -74.0886 O.2       6 UNK        -0.5032 
     45 CA        -76.2621   24.8830  -73.5797 C.3       5 UNK         0.0783 
     46 C46       -77.3305   25.2081  -72.5047 C.3       11 UNK        -0.0857 
     47 S47       -76.5755   25.9019  -70.9957 S.3       11 UNK        -0.2512 
     48 C48       -77.7499   27.2202  -70.5311 C.3       11 UNK         0.0225 
     49 N         -76.7066   23.8477  -74.5183 N.am      5 UNK        -0.4615 
     50 C         -75.8972   23.2162  -75.3822 C.2       4 UNK         0.5053 
     51 O         -74.6862   23.4166  -75.4570 O.2       4 UNK        -0.5105 
     52 CA        -76.5513   22.2262  -76.3594 C.3       4 UNK         0.0263 
     53 CB        -76.7766   20.8650  -75.6825 C.3       4 UNK        -0.1981 
     54 N         -77.8162   22.7226  -76.9028 N.am      4 UNK        -0.4224 
     55 C         -77.9370   23.8130  -77.6743 C.2       3 UNK         0.4895 
     56 O         -76.9853   24.4865  -78.0650 O.2       3 UNK        -0.5091 
     57 CA        -79.3659   24.2564  -78.0275 C.3       3 UNK         0.0250 
     58 CB        -79.8405   23.5712  -79.3186 C.3       3 UNK        -0.1996 
     59 N         -80.3330   24.0095  -76.9524 N.am      3 UNK        -0.4254 
     60 C         -80.2641   24.5531  -75.7296 C.2       2 UNK         0.5004 
     61 O         -79.3602   25.3087  -75.3588 O.2       2 UNK        -0.5226 
     62 CA        -81.3538   24.1333  -74.7327 C.3       2 UNK         0.0269 
     63 CB        -80.8460   22.9943  -73.8336 C.3       2 UNK        -0.1926 
     64 N         -81.7396   25.2666  -73.8959 N.am      2 UNK        -0.4687 
     65 C         -82.4918   26.2934  -74.3149 C.2       1 UNK         0.5165 
     66 O         -83.0541   26.3248  -75.4102 O.2       1 UNK        -0.5079 
     67 H67       -85.1051   26.6052  -72.1572 H         1 UNK         0.0900 
     68 H68       -85.1049   25.4261  -70.8575 H         1 UNK         0.0900 
     69 H69       -84.3431   25.0203  -72.3897 H         1 UNK         0.0900 
     70 H70       -81.5586   27.5019  -71.5470 H         1 UNK         0.2959 
     71 H71       -83.6620   27.8546  -73.4442 H         1 UNK         0.1079 
     72 H72       -80.6695   28.2715  -73.8986 H         1 UNK         0.0837 
     73 H73       -81.9721   28.9537  -74.8327 H         1 UNK         0.0837 
     74 H74       -80.1022   31.0071  -74.2404 H         1 UNK         0.0685 
     75 H75       -80.1775   31.9030  -72.7435 H         1 UNK         0.0685 
     76 H76       -79.8319   28.5976  -71.5602 H         1 UNK         0.1434 
     77 H77       -75.5673   28.6074  -71.4301 H         1 UNK         0.1329 
     78 H78       -77.6338   31.6615  -73.6072 H         1 UNK         0.1335 
     79 H79       -75.0669   31.8271  -72.4607 H         1 UNK         0.0680 
     80 H80       -74.2920   30.2605  -72.5444 H         1 UNK         0.0680 
     81 H81       -72.8732   32.0288  -73.8700 H         1 UNK         0.1032 
     82 H82       -73.2893   32.6042  -75.4568 H         1 UNK         0.1032 
     83 H83       -72.6311   30.3850  -76.4501 H         1 UNK         0.0461 
     84 H84       -69.9010   32.9155  -76.6048 H         1 UNK         0.3453 
     85 H85       -71.6360   33.0507  -76.5237 H         1 UNK         0.3453 
     86 H86       -72.4400   28.5968  -75.2000 H         1 UNK         0.2984 
     87 H87       -70.5911   27.7619  -72.4436 H         1 UNK         0.0554 
     88 H88       -72.4848   26.8157  -71.1835 H         1 UNK         0.0847 
     89 H89       -72.4303   28.5571  -70.9576 H         1 UNK         0.0847 
     90 H90       -73.6137   27.8501  -72.0487 H         1 UNK         0.0847 
     91 H91       -72.8498   26.6027  -73.9907 H         1 UNK         0.3141 
     92 H92       -70.5259   24.5730  -75.8712 H         1 UNK         0.0743 
     93 H93       -72.5950   23.9432  -73.7045 H         1 UNK         0.0784 
     94 H94       -71.9679   22.8155  -74.9055 H         1 UNK         0.0784 
     95 H95       -70.9022   23.4671  -73.6710 H         1 UNK         0.0784 
     96 H96       -73.3756   24.7119  -75.9454 H         1 UNK         0.3213 
     97 H97       -73.4197   26.6953  -78.9723 H         1 UNK         0.0855 
     98 H98       -74.0687   23.7929  -78.2292 H         1 UNK         0.0814 
     99 H99       -72.9293   24.2928  -79.4725 H         1 UNK         0.0814 
    100 H100      -74.6375   24.6592  -79.6533 H         1 UNK         0.0814 
    101 H101      -75.5377   25.5967  -77.3779 H         1 UNK         0.3105 
    102 H102      -76.1921   28.5923  -75.5233 H         1 UNK         0.0547 
    103 H103      -77.3947   28.8906  -77.6773 H         1 UNK         0.0837 
    104 H104      -77.7684   27.1737  -77.7321 H         1 UNK         0.0837 
    105 H105      -78.4557   28.1895  -76.4645 H         1 UNK         0.0837 
    106 H106      -77.5227   26.1240  -75.4162 H         1 UNK         0.3020 
    107 H107      -75.3826   24.4781  -73.0726 H         1 UNK         0.1245 
    108 H108      -77.8491   24.2965  -72.2046 H         1 UNK         0.0781 
    109 H109      -78.1012   25.8777  -72.8928 H         1 UNK         0.0781 
    110 H110      -77.5224   27.5389  -69.5131 H         1 UNK         0.0836 
    111 H111      -78.7543   26.7948  -70.4988 H         1 UNK         0.0836 
    112 H112      -77.7009   23.6854  -74.5733 H         1 UNK         0.3022 
    113 H113      -75.8627   22.0829  -77.1949 H         1 UNK         0.0747 
    114 H114      -77.1606   20.1293  -76.3895 H         1 UNK         0.0793 
    115 H115      -75.8413   20.4699  -75.2833 H         1 UNK         0.0793 
    116 H116      -77.4815   20.9343  -74.8530 H         1 UNK         0.0793 
    117 H117      -78.6550   22.2257  -76.6420 H         1 UNK         0.3047 
    118 H118      -79.3391   25.3337  -78.2035 H         1 UNK         0.0822 
    119 H119      -80.8145   23.9469  -79.6329 H         1 UNK         0.0807 
    120 H120      -79.9190   22.4898  -79.1995 H         1 UNK         0.0807 
    121 H121      -79.1442   23.7590  -80.1374 H         1 UNK         0.0807 
    122 H122      -81.1034   23.3940  -77.1723 H         1 UNK         0.2946 
    123 H123      -82.2326   23.7866  -75.2818 H         1 UNK         0.1144 
    124 H124      -81.6149   22.6737  -73.1302 H         1 UNK         0.0793 
    125 H125      -79.9697   23.2922  -73.2567 H         1 UNK         0.0793 
    126 H126      -80.5672   22.1212  -74.4250 H         1 UNK         0.0793 
    127 H127      -81.2926   25.3411  -72.9939 H         1 UNK         0.2896 
@<TRIPOS>BOND
     1    1    2 1    
     2    1   67 1    
     3    1   68 1    
     4    1   69 1    
     5    2    3 2    
     6    2    4 am   BACKBONE|DICT|INTERRES
     7    4    5 1    
     8    4   70 1    
     9    5    6 1    
    10    5   65 1    
    11    5   71 1    
    12    6    7 1    
    13    6   72 1    
    14    6   73 1    
    15    7    8 1    
    16    8    9 1    
    17    8   74 1    
    18    8   75 1    
    19    9   10 ar   
    20    9   14 ar   
    21   10   11 ar   
    22   10   76 1    
    23   11   12 ar   
    24   11   48 1    
    25   12   13 ar   
    26   12   77 1    
    27   13   14 ar   
    28   13   15 1    
    29   14   78 1    
    30   15   16 1    
    31   15   79 1    
    32   15   80 1    
    33   16   17 1    
    34   17   18 1    
    35   17   81 1    
    36   17   82 1    
    37   18   19 1    
    38   18   22 1    
    39   18   83 1    
    40   19   20 am   BACKBONE|DICT|INTERRES
    41   19   21 2    
    42   20   84 1    
    43   20   85 1    
    44   22   23 am   BACKBONE|DICT|INTERRES
    45   22   86 1    
    46   23   24 2    
    47   23   25 1    
    48   25   26 1    
    49   25   27 1    
    50   25   87 1    
    51   26   88 1    
    52   26   89 1    
    53   26   90 1    
    54   27   28 am   BACKBONE|DICT|INTERRES
    55   27   91 1    
    56   28   29 2    
    57   28   30 1    
    58   30   31 1    
    59   30   32 1    
    60   30   92 1    
    61   31   93 1    
    62   31   94 1    
    63   31   95 1    
    64   32   33 am   BACKBONE|DICT|INTERRES
    65   32   96 1    
    66   33   34 2    
    67   33   35 1    
    68   35   36 1    
    69   35   37 1    
    70   35   97 1    
    71   36   98 1    
    72   36   99 1    
    73   36  100 1    
    74   37   38 am   BACKBONE|DICT|INTERRES
    75   37  101 1    
    76   38   39 2    
    77   38   40 1    
    78   40   41 1    
    79   40   42 1    
    80   40  102 1    
    81   41  103 1    
    82   41  104 1    
    83   41  105 1    
    84   42   43 am   BACKBONE|DICT|INTERRES
    85   42  106 1    
    86   43   44 2    
    87   43   45 1    
    88   45   46 1    
    89   45   49 1    
    90   45  107 1    
    91   46   47 1    
    92   46  108 1    
    93   46  109 1    
    94   47   48 1    
    95   48  110 1    
    96   48  111 1    
    97   49   50 am   BACKBONE|DICT|INTERRES
    98   49  112 1    
    99   50   51 2    
   100   50   52 1    
   101   52   53 1    
   102   52   54 1    
   103   52  113 1    
   104   53  114 1    
   105   53  115 1    
   106   53  116 1    
   107   54   55 am   BACKBONE|DICT|INTERRES
   108   54  117 1    
   109   55   56 2    
   110   55   57 1    
   111   57   58 1    
   112   57   59 1    
   113   57  118 1    
   114   58  119 1    
   115   58  120 1    
   116   58  121 1    
   117   59   60 am   BACKBONE|DICT|INTERRES
   118   59  122 1    
   119   60   61 2    
   120   60   62 1    
   121   62   63 1    
   122   62   64 1    
   123   62  123 1    
   124   63  124 1    
   125   63  125 1    
   126   63  126 1    
   127   64   65 am   BACKBONE|DICT|INTERRES
   128   64  127 1    
   129   65   66 2    
@<TRIPOS>SUBSTRUCTURE
     1 UNK         1 GROUP             0       ****    0 ROOT    
