@<TRIPOS>MOLECULE
3R135
127   129    1
SMALL
USER_CHARGES


@<TRIPOS>ATOM
      1 CA        -82.3486   23.4556  -74.2126 C.3       0 UNK        -0.1998 
      2 C         -82.2419   24.8811  -74.7317 C.2       0 UNK         0.4909 
      3 O         -83.1123   25.3323  -75.4764 O.2       0 UNK        -0.5240 
      4 N         -81.1634   25.5887  -74.3729 N.am      1 UNK        -0.4739 
      5 CA        -80.8564   26.9548  -74.8125 C.3       1 UNK         0.0864 
      6 C6        -80.0647   27.7236  -73.7223 C.3       11 UNK        -0.0881 
      7 S7        -80.2473   29.5288  -73.9016 S.3       11 UNK        -0.2682 
      8 C8        -80.1027   30.0884  -72.1776 C.3       11 UNK         0.0289 
      9 C9        -78.6958   29.8941  -71.6302 C.ar      11 UNK        -0.0687 
     10 C10       -78.4199   28.8472  -70.7461 C.ar      11 UNK        -0.0823 
     11 C11       -77.1399   28.6983  -70.2053 C.ar      11 UNK        -0.0830 
     12 C12       -76.1355   29.6052  -70.5531 C.ar      11 UNK        -0.1021 
     13 C13       -76.3874   30.6441  -71.4586 C.ar      11 UNK        -0.0753 
     14 C14       -77.6754   30.7815  -71.9867 C.ar      11 UNK        -0.0933 
     15 C15       -75.3142   31.6583  -71.8607 C.3       11 UNK         0.0166 
     16 S16       -73.5881   31.0874  -71.6812 S.3       11 UNK        -0.2615 
     17 C17       -73.5305   29.7693  -72.9384 C.3       11 UNK        -0.0865 
     18 CA        -72.1121   29.1779  -73.1290 C.3       10 UNK         0.0862 
     19 C         -71.7100   28.2238  -71.9706 C.2       10 UNK         0.5551 
     20 N         -72.1225   26.9622  -71.9940 N.am      10 UNK        -0.7319 
     21 O         -70.9975   28.6251  -71.0536 O.2       10 UNK        -0.5018 
     22 N         -71.9900   28.5560  -74.4512 N.am      10 UNK        -0.4509 
     23 C         -70.8365   28.2875  -75.0746 C.2       10 UNK         0.4899 
     24 O         -69.7264   28.5746  -74.6259 O.2       10 UNK        -0.4839 
     25 CA        -70.9379   27.5997  -76.4443 C.3       9 UNK         0.0222 
     26 CB        -71.0526   26.0768  -76.2660 C.3       9 UNK        -0.1966 
     27 N         -72.0936   28.0895  -77.2002 N.am      9 UNK        -0.4218 
     28 C         -72.0521   29.0517  -78.1323 C.2       9 UNK         0.5020 
     29 O         -71.0139   29.6053  -78.4980 O.2       9 UNK        -0.5274 
     30 CA        -73.3838   29.4653  -78.7907 C.3       8 UNK         0.0270 
     31 CB        -73.5830   28.7070  -80.1135 C.3       8 UNK        -0.1976 
     32 N         -74.5558   29.2545  -77.9371 N.am      8 UNK        -0.4313 
     33 C         -74.8617   29.9946  -76.8625 C.2       8 UNK         0.5041 
     34 O         -74.2234   30.9876  -76.5131 O.2       8 UNK        -0.5577 
     35 CA        -76.0740   29.5458  -76.0211 C.3       7 UNK         0.0284 
     36 CB        -77.3360   30.2828  -76.4944 C.3       7 UNK        -0.1958 
     37 N         -76.3393   28.0989  -76.0044 N.am      7 UNK        -0.4454 
     38 C         -75.4542   27.1327  -75.7301 C.2       7 UNK         0.5089 
     39 O         -74.2591   27.3472  -75.5307 O.2       7 UNK        -0.5125 
     40 CA        -75.9830   25.6879  -75.7176 C.3       6 UNK         0.0408 
     41 CB        -74.9914   24.7153  -76.3857 C.3       6 UNK        -0.1791 
     42 N         -76.3335   25.2127  -74.3751 N.am      6 UNK        -0.4762 
     43 C         -75.5562   25.1572  -73.2774 C.2       6 UNK         0.5007 
     44 O         -74.3935   25.5579  -73.2202 O.2       6 UNK        -0.5032 
     45 CA        -76.1750   24.4745  -72.0368 C.3       5 UNK         0.0783 
     46 C46       -76.9039   25.4890  -71.1204 C.3       11 UNK        -0.0857 
     47 S47       -75.7562   26.3082  -69.9672 S.3       11 UNK        -0.2512 
     48 C48       -76.8372   27.5720  -69.2282 C.3       11 UNK         0.0225 
     49 N         -77.0545   23.3648  -72.4158 N.am      5 UNK        -0.4615 
     50 C         -76.6374   22.2139  -72.9591 C.2       4 UNK         0.5053 
     51 O         -75.4532   21.9048  -73.0913 O.2       4 UNK        -0.5105 
     52 CA        -77.7232   21.2562  -73.4769 C.3       4 UNK         0.0263 
     53 CB        -78.9838   21.2142  -72.5836 C.3       4 UNK        -0.1981 
     54 N         -78.0642   21.5371  -74.8774 N.am      4 UNK        -0.4224 
     55 C         -78.6039   22.6592  -75.3748 C.2       3 UNK         0.4895 
     56 O         -78.9139   23.6402  -74.6883 O.2       3 UNK        -0.5091 
     57 CA        -78.8360   22.6906  -76.8938 C.3       3 UNK         0.0250 
     58 CB        -79.7027   21.5100  -77.3744 C.3       3 UNK        -0.1996 
     59 N         -79.5020   23.9427  -77.2304 N.am      3 UNK        -0.4254 
     60 C         -79.4084   24.6313  -78.3731 C.2       2 UNK         0.5004 
     61 O         -78.7311   24.2691  -79.3353 O.2       2 UNK        -0.5226 
     62 CA        -80.2203   25.9417  -78.4670 C.3       2 UNK         0.0269 
     63 CB        -81.3433   25.8089  -79.5090 C.3       2 UNK        -0.1926 
     64 N         -80.8133   26.3368  -77.1834 N.am      2 UNK        -0.4687 
     65 C         -80.1333   26.8979  -76.1755 C.2       1 UNK         0.5165 
     66 O         -78.9645   27.2675  -76.2838 O.2       1 UNK        -0.5079 
     67 H67       -81.5428   23.2146  -73.5202 H         1 UNK         0.0900 
     68 H68       -82.3056   22.7501  -75.0418 H         1 UNK         0.0900 
     69 H69       -83.2954   23.3150  -73.6921 H         1 UNK         0.0900 
     70 H70       -80.4315   25.1243  -73.8501 H         1 UNK         0.2959 
     71 H71       -81.8000   27.4819  -74.9737 H         1 UNK         0.1079 
     72 H72       -80.4479   27.4505  -72.7379 H         1 UNK         0.0837 
     73 H73       -79.0055   27.4580  -73.7113 H         1 UNK         0.0837 
     74 H74       -80.3634   31.1467  -72.1308 H         1 UNK         0.0685 
     75 H75       -80.8378   29.5689  -71.5608 H         1 UNK         0.0685 
     76 H76       -79.2047   28.1565  -70.4697 H         1 UNK         0.1434 
     77 H77       -75.1544   29.4863  -70.1153 H         1 UNK         0.1329 
     78 H78       -77.8913   31.5889  -72.6733 H         1 UNK         0.1335 
     79 H79       -75.4664   31.9682  -72.8960 H         1 UNK         0.0680 
     80 H80       -75.4437   32.5519  -71.2490 H         1 UNK         0.0680 
     81 H81       -73.8615   30.2203  -73.8739 H         1 UNK         0.1032 
     82 H82       -74.2570   28.9879  -72.7048 H         1 UNK         0.1032 
     83 H83       -71.4066   30.0117  -73.1169 H         1 UNK         0.0461 
     84 H84       -71.8509   26.3477  -71.2444 H         1 UNK         0.3453 
     85 H85       -72.7708   26.6275  -72.6995 H         1 UNK         0.3453 
     86 H86       -72.8523   28.1980  -74.8574 H         1 UNK         0.2984 
     87 H87       -70.0182   27.8048  -76.9962 H         1 UNK         0.0554 
     88 H88       -71.1183   25.5674  -77.2275 H         1 UNK         0.0847 
     89 H89       -71.9302   25.8024  -75.6794 H         1 UNK         0.0847 
     90 H90       -70.1794   25.6797  -75.7468 H         1 UNK         0.0847 
     91 H91       -72.9992   27.7465  -76.8933 H         1 UNK         0.3141 
     92 H92       -73.3178   30.5317  -79.0175 H         1 UNK         0.0743 
     93 H93       -72.7395   28.8689  -80.7863 H         1 UNK         0.0784 
     94 H94       -73.6704   27.6314  -79.9545 H         1 UNK         0.0784 
     95 H95       -74.4791   29.0450  -80.6345 H         1 UNK         0.0784 
     96 H96       -75.1482   28.4665  -78.1547 H         1 UNK         0.3213 
     97 H97       -75.8822   29.8407  -74.9884 H         1 UNK         0.0855 
     98 H98       -77.1855   31.3633  -76.4911 H         1 UNK         0.0814 
     99 H99       -78.1823   30.0747  -75.8424 H         1 UNK         0.0814 
    100 H100      -77.6169   29.9923  -77.5073 H         1 UNK         0.0814 
    101 H101      -77.3129   27.8222  -76.1444 H         1 UNK         0.3105 
    102 H102      -76.9008   25.6597  -76.3056 H         1 UNK         0.0547 
    103 H103      -74.7368   25.0457  -77.3933 H         1 UNK         0.0837 
    104 H104      -74.0602   24.6344  -75.8247 H         1 UNK         0.0837 
    105 H105      -75.4158   23.7150  -76.4687 H         1 UNK         0.0837 
    106 H106      -77.2685   24.8273  -74.2962 H         1 UNK         0.3020 
    107 H107      -75.3472   24.0332  -71.4761 H         1 UNK         0.1245 
    108 H108      -77.6495   24.9793  -70.5078 H         1 UNK         0.0781 
    109 H109      -77.4507   26.2343  -71.7016 H         1 UNK         0.0781 
    110 H110      -76.3433   27.9862  -68.3480 H         1 UNK         0.0836 
    111 H111      -77.7549   27.1030  -68.8695 H         1 UNK         0.0836 
    112 H112      -78.0482   23.5431  -72.3996 H         1 UNK         0.3022 
    113 H113      -77.2852   20.2567  -73.4621 H         1 UNK         0.0747 
    114 H114      -79.6734   20.4402  -72.9204 H         1 UNK         0.0793 
    115 H115      -78.7203   20.9816  -71.5509 H         1 UNK         0.0793 
    116 H116      -79.5301   22.1566  -72.5754 H         1 UNK         0.0793 
    117 H117      -77.8168   20.8051  -75.5287 H         1 UNK         0.3047 
    118 H118      -77.8597   22.6574  -77.3820 H         1 UNK         0.0822 
    119 H119      -79.9046   21.5780  -78.4436 H         1 UNK         0.0807 
    120 H120      -80.6625   21.4795  -76.8571 H         1 UNK         0.0807 
    121 H121      -79.2084   20.5527  -77.2070 H         1 UNK         0.0807 
    122 H122      -80.0060   24.3597  -76.4597 H         1 UNK         0.2946 
    123 H123      -79.5332   26.7249  -78.7962 H         1 UNK         0.1144 
    124 H124      -81.8901   26.7450  -79.6241 H         1 UNK         0.0793 
    125 H125      -82.0587   25.0327  -79.2343 H         1 UNK         0.0793 
    126 H126      -80.9400   25.5491  -80.4888 H         1 UNK         0.0793 
    127 H127      -81.7627   26.0308  -76.9991 H         1 UNK         0.2896 
@<TRIPOS>BOND
     1    1    2 1    
     2    1   67 1    
     3    1   68 1    
     4    1   69 1    
     5    2    3 2    
     6    2    4 am   BACKBONE|DICT|INTERRES
     7    4    5 1    
     8    4   70 1    
     9    5    6 1    
    10    5   65 1    
    11    5   71 1    
    12    6    7 1    
    13    6   72 1    
    14    6   73 1    
    15    7    8 1    
    16    8    9 1    
    17    8   74 1    
    18    8   75 1    
    19    9   10 ar   
    20    9   14 ar   
    21   10   11 ar   
    22   10   76 1    
    23   11   12 ar   
    24   11   48 1    
    25   12   13 ar   
    26   12   77 1    
    27   13   14 ar   
    28   13   15 1    
    29   14   78 1    
    30   15   16 1    
    31   15   79 1    
    32   15   80 1    
    33   16   17 1    
    34   17   18 1    
    35   17   81 1    
    36   17   82 1    
    37   18   19 1    
    38   18   22 1    
    39   18   83 1    
    40   19   20 am   BACKBONE|DICT|INTERRES
    41   19   21 2    
    42   20   84 1    
    43   20   85 1    
    44   22   23 am   BACKBONE|DICT|INTERRES
    45   22   86 1    
    46   23   24 2    
    47   23   25 1    
    48   25   26 1    
    49   25   27 1    
    50   25   87 1    
    51   26   88 1    
    52   26   89 1    
    53   26   90 1    
    54   27   28 am   BACKBONE|DICT|INTERRES
    55   27   91 1    
    56   28   29 2    
    57   28   30 1    
    58   30   31 1    
    59   30   32 1    
    60   30   92 1    
    61   31   93 1    
    62   31   94 1    
    63   31   95 1    
    64   32   33 am   BACKBONE|DICT|INTERRES
    65   32   96 1    
    66   33   34 2    
    67   33   35 1    
    68   35   36 1    
    69   35   37 1    
    70   35   97 1    
    71   36   98 1    
    72   36   99 1    
    73   36  100 1    
    74   37   38 am   BACKBONE|DICT|INTERRES
    75   37  101 1    
    76   38   39 2    
    77   38   40 1    
    78   40   41 1    
    79   40   42 1    
    80   40  102 1    
    81   41  103 1    
    82   41  104 1    
    83   41  105 1    
    84   42   43 am   BACKBONE|DICT|INTERRES
    85   42  106 1    
    86   43   44 2    
    87   43   45 1    
    88   45   46 1    
    89   45   49 1    
    90   45  107 1    
    91   46   47 1    
    92   46  108 1    
    93   46  109 1    
    94   47   48 1    
    95   48  110 1    
    96   48  111 1    
    97   49   50 am   BACKBONE|DICT|INTERRES
    98   49  112 1    
    99   50   51 2    
   100   50   52 1    
   101   52   53 1    
   102   52   54 1    
   103   52  113 1    
   104   53  114 1    
   105   53  115 1    
   106   53  116 1    
   107   54   55 am   BACKBONE|DICT|INTERRES
   108   54  117 1    
   109   55   56 2    
   110   55   57 1    
   111   57   58 1    
   112   57   59 1    
   113   57  118 1    
   114   58  119 1    
   115   58  120 1    
   116   58  121 1    
   117   59   60 am   BACKBONE|DICT|INTERRES
   118   59  122 1    
   119   60   61 2    
   120   60   62 1    
   121   62   63 1    
   122   62   64 1    
   123   62  123 1    
   124   63  124 1    
   125   63  125 1    
   126   63  126 1    
   127   64   65 am   BACKBONE|DICT|INTERRES
   128   64  127 1    
   129   65   66 2    
@<TRIPOS>SUBSTRUCTURE
     1 UNK         1 GROUP             0       ****    0 ROOT    
