@<TRIPOS>MOLECULE
3R135
127   129    1
SMALL
USER_CHARGES


@<TRIPOS>ATOM
      1 CA        -86.6841   25.0947  -72.9568 C.3       0 UNK        -0.1998 
      2 C         -85.5246   26.0674  -73.1136 C.2       0 UNK         0.4909 
      3 O         -85.6775   27.1024  -73.7638 O.2       0 UNK        -0.5240 
      4 N         -84.3694   25.7481  -72.5159 N.am      1 UNK        -0.4739 
      5 CA        -83.1317   26.5277  -72.6245 C.3       1 UNK         0.0864 
      6 C6        -82.1543   26.1791  -71.4721 C.3       11 UNK        -0.0881 
      7 S7        -81.0346   27.5620  -71.0704 S.3       11 UNK        -0.2682 
      8 C8        -79.4560   26.9245  -71.7056 C.3       11 UNK         0.0289 
      9 C9        -78.3857   28.0034  -71.7024 C.ar      11 UNK        -0.0687 
     10 C10       -78.3683   28.9756  -72.7066 C.ar      11 UNK        -0.0823 
     11 C11       -77.3708   29.9547  -72.7295 C.ar      11 UNK        -0.0830 
     12 C12       -76.3767   29.9466  -71.7478 C.ar      11 UNK        -0.1021 
     13 C13       -76.3837   28.9798  -70.7386 C.ar      11 UNK        -0.0753 
     14 C14       -77.4007   28.0209  -70.7104 C.ar      11 UNK        -0.0933 
     15 C15       -75.2876   28.9717  -69.6829 C.3       11 UNK         0.0166 
     16 S16       -74.2469   27.4754  -69.7531 S.3       11 UNK        -0.2615 
     17 C17       -73.7202   27.4115  -71.5026 C.3       11 UNK        -0.0865 
     18 CA        -72.7744   28.5448  -71.9759 C.3       10 UNK         0.0862 
     19 C         -71.3745   28.4872  -71.2872 C.2       10 UNK         0.5551 
     20 N         -70.3050   28.1011  -71.9738 N.am      10 UNK        -0.7319 
     21 O         -71.2476   28.8269  -70.1138 O.2       10 UNK        -0.5018 
     22 N         -72.7243   28.5597  -73.4455 N.am      10 UNK        -0.4509 
     23 C         -72.2479   29.5699  -74.1851 C.2       10 UNK         0.4899 
     24 O         -71.9450   30.6689  -73.7182 O.2       10 UNK        -0.4839 
     25 CA        -72.0678   29.3052  -75.6976 C.3       9 UNK         0.0222 
     26 CB        -70.9266   30.1494  -76.3043 C.3       9 UNK        -0.1966 
     27 N         -71.8986   27.8835  -76.0558 N.am      9 UNK        -0.4218 
     28 C         -70.9384   27.0601  -75.6042 C.2       9 UNK         0.5020 
     29 O         -70.0915   27.4099  -74.7802 O.2       9 UNK        -0.5274 
     30 CA        -70.8961   25.6151  -76.1290 C.3       8 UNK         0.0270 
     31 CB        -70.3923   24.6280  -75.0533 C.3       8 UNK        -0.1976 
     32 N         -72.1716   25.1264  -76.6679 N.am      8 UNK        -0.4313 
     33 C         -72.2370   24.2119  -77.6495 C.2       8 UNK         0.5041 
     34 O         -71.2635   23.8533  -78.3150 O.2       8 UNK        -0.5577 
     35 CA        -73.5908   23.5322  -77.9093 C.3       7 UNK         0.0284 
     36 CB        -73.9386   22.5668  -76.7644 C.3       7 UNK        -0.1958 
     37 N         -74.6854   24.4761  -78.1173 N.am      7 UNK        -0.4454 
     38 C         -74.8369   25.2366  -79.2100 C.2       7 UNK         0.5089 
     39 O         -74.0801   25.2076  -80.1811 O.2       7 UNK        -0.5125 
     40 CA        -76.0286   26.2122  -79.2122 C.3       6 UNK         0.0408 
     41 CB        -77.3144   25.5087  -79.6741 C.3       6 UNK        -0.1791 
     42 N         -76.2561   26.8415  -77.9092 N.am      6 UNK        -0.4762 
     43 C         -75.3634   27.6117  -77.2712 C.2       6 UNK         0.5007 
     44 O         -74.2559   27.8991  -77.7247 O.2       6 UNK        -0.5032 
     45 CA        -75.7556   28.0928  -75.8642 C.3       5 UNK         0.0783 
     46 C46       -76.7591   29.2778  -75.9239 C.3       11 UNK        -0.0857 
     47 S47       -76.1066   30.7497  -75.0710 S.3       11 UNK        -0.2512 
     48 C48       -77.3747   31.0372  -73.7985 C.3       11 UNK         0.0225 
     49 N         -76.2385   26.9640  -75.0664 N.am      5 UNK        -0.4615 
     50 C         -75.4525   25.9830  -74.5998 C.2       4 UNK         0.5053 
     51 O         -74.2228   25.9948  -74.6954 O.2       4 UNK        -0.5105 
     52 CA        -76.1473   24.7695  -73.9530 C.3       4 UNK         0.0263 
     53 CB        -76.1517   24.8784  -72.4230 C.3       4 UNK        -0.1981 
     54 N         -77.5168   24.5627  -74.4361 N.am      4 UNK        -0.4224 
     55 C         -77.8065   24.1173  -75.6659 C.2       3 UNK         0.4895 
     56 O         -76.9534   23.8395  -76.5068 O.2       3 UNK        -0.5091 
     57 CA        -79.2923   23.9990  -76.0370 C.3       3 UNK         0.0250 
     58 CB        -79.9065   22.7332  -75.4183 C.3       3 UNK        -0.1996 
     59 N         -80.1103   25.1631  -75.6808 N.am      3 UNK        -0.4254 
     60 C         -79.8843   26.4335  -76.0373 C.2       2 UNK         0.5004 
     61 O         -78.8576   26.8066  -76.6047 O.2       2 UNK        -0.5226 
     62 CA        -80.9760   27.4767  -75.7245 C.3       2 UNK         0.0269 
     63 CB        -81.9736   27.5688  -76.8946 C.3       2 UNK        -0.1926 
     64 N         -81.6864   27.3293  -74.4405 N.am      2 UNK        -0.4687 
     65 C         -82.4812   26.3361  -74.0133 C.2       1 UNK         0.5165 
     66 O         -82.6795   25.2948  -74.6452 O.2       1 UNK        -0.5079 
     67 H67       -87.0028   24.7315  -73.9335 H         1 UNK         0.0900 
     68 H68       -86.4142   24.2332  -72.3463 H         1 UNK         0.0900 
     69 H69       -87.5307   25.5926  -72.4849 H         1 UNK         0.0900 
     70 H70       -84.2935   24.8681  -72.0258 H         1 UNK         0.2959 
     71 H71       -83.4143   27.5795  -72.5332 H         1 UNK         0.1079 
     72 H72       -82.7158   25.9741  -70.5589 H         1 UNK         0.0837 
     73 H73       -81.5916   25.2660  -71.6784 H         1 UNK         0.0837 
     74 H74       -79.1449   26.0717  -71.1001 H         1 UNK         0.0685 
     75 H75       -79.5869   26.5498  -72.7209 H         1 UNK         0.0685 
     76 H76       -79.1383   28.9738  -73.4645 H         1 UNK         0.1434 
     77 H77       -75.5973   30.6962  -71.7736 H         1 UNK         0.1329 
     78 H78       -77.4063   27.2725  -69.9297 H         1 UNK         0.1335 
     79 H79       -74.6494   29.8516  -69.7760 H         1 UNK         0.0680 
     80 H80       -75.7455   29.0337  -68.6948 H         1 UNK         0.0680 
     81 H81       -73.2544   26.4410  -71.6826 H         1 UNK         0.1032 
     82 H82       -74.6248   27.4168  -72.1108 H         1 UNK         0.1032 
     83 H83       -73.2210   29.4941  -71.6767 H         1 UNK         0.0461 
     84 H84       -69.4097   28.0827  -71.5130 H         1 UNK         0.3453 
     85 H85       -70.3650   27.8583  -72.9591 H         1 UNK         0.3453 
     86 H86       -72.9450   27.6871  -73.9082 H         1 UNK         0.2984 
     87 H87       -72.9913   29.6390  -76.1698 H         1 UNK         0.0554 
     88 H88       -71.1145   31.2160  -76.1754 H         1 UNK         0.0847 
     89 H89       -70.8259   29.9692  -77.3745 H         1 UNK         0.0847 
     90 H90       -69.9672   29.9300  -75.8347 H         1 UNK         0.0847 
     91 H91       -72.5645   27.5366  -76.7405 H         1 UNK         0.3141 
     92 H92       -70.1564   25.6404  -76.9319 H         1 UNK         0.0743 
     93 H93       -71.0742   24.5853  -74.2030 H         1 UNK         0.0784 
     94 H94       -70.2911   23.6186  -75.4522 H         1 UNK         0.0784 
     95 H95       -69.4112   24.9164  -74.6736 H         1 UNK         0.0784 
     96 H96       -73.0069   25.3678  -76.1402 H         1 UNK         0.3213 
     97 H97       -73.4905   22.9380  -78.8205 H         1 UNK         0.0855 
     98 H98       -74.0611   23.0899  -75.8166 H         1 UNK         0.0814 
     99 H99       -73.1499   21.8260  -76.6268 H         1 UNK         0.0814 
    100 H100      -74.8610   22.0230  -76.9695 H         1 UNK         0.0814 
    101 H101      -75.4217   24.4903  -77.4155 H         1 UNK         0.3105 
    102 H102      -75.8029   27.0081  -79.9248 H         1 UNK         0.0547 
    103 H103      -77.1828   25.0664  -80.6624 H         1 UNK         0.0837 
    104 H104      -77.6045   24.7071  -78.9946 H         1 UNK         0.0837 
    105 H105      -78.1479   26.2082  -79.7396 H         1 UNK         0.0837 
    106 H106      -77.1570   26.6763  -77.4651 H         1 UNK         0.3020 
    107 H107      -74.8354   28.4334  -75.3910 H         1 UNK         0.1245 
    108 H108      -77.7234   28.9997  -75.5000 H         1 UNK         0.0781 
    109 H109      -76.9860   29.5832  -76.9478 H         1 UNK         0.0781 
    110 H110      -78.3547   31.1165  -74.2719 H         1 UNK         0.0836 
    111 H111      -77.1876   32.0046  -73.3301 H         1 UNK         0.0836 
    112 H112      -77.2406   26.8498  -75.0160 H         1 UNK         0.3022 
    113 H113      -75.5649   23.8844  -74.2144 H         1 UNK         0.0747 
    114 H114      -76.6511   24.0258  -71.9627 H         1 UNK         0.0793 
    115 H115      -75.1342   24.8993  -72.0326 H         1 UNK         0.0793 
    116 H116      -76.6510   25.7836  -72.0855 H         1 UNK         0.0793 
    117 H117      -78.2736   24.7622  -73.7998 H         1 UNK         0.3047 
    118 H118      -79.3418   23.9003  -77.1233 H         1 UNK         0.0822 
    119 H119      -80.9225   22.5701  -75.7786 H         1 UNK         0.0807 
    120 H120      -79.9441   22.7906  -74.3298 H         1 UNK         0.0807 
    121 H121      -79.3256   21.8475  -75.6800 H         1 UNK         0.0807 
    122 H122      -81.0143   24.9735  -75.2524 H         1 UNK         0.2946 
    123 H123      -80.4607   28.4371  -75.6672 H         1 UNK         0.1144 
    124 H124      -82.6883   28.3778  -76.7434 H         1 UNK         0.0793 
    125 H125      -82.5371   26.6442  -77.0244 H         1 UNK         0.0793 
    126 H126      -81.4557   27.7667  -77.8343 H         1 UNK         0.0793 
    127 H127      -81.5717   28.1117  -73.8102 H         1 UNK         0.2896 
@<TRIPOS>BOND
     1    1    2 1    
     2    1   67 1    
     3    1   68 1    
     4    1   69 1    
     5    2    3 2    
     6    2    4 am   BACKBONE|DICT|INTERRES
     7    4    5 1    
     8    4   70 1    
     9    5    6 1    
    10    5   65 1    
    11    5   71 1    
    12    6    7 1    
    13    6   72 1    
    14    6   73 1    
    15    7    8 1    
    16    8    9 1    
    17    8   74 1    
    18    8   75 1    
    19    9   10 ar   
    20    9   14 ar   
    21   10   11 ar   
    22   10   76 1    
    23   11   12 ar   
    24   11   48 1    
    25   12   13 ar   
    26   12   77 1    
    27   13   14 ar   
    28   13   15 1    
    29   14   78 1    
    30   15   16 1    
    31   15   79 1    
    32   15   80 1    
    33   16   17 1    
    34   17   18 1    
    35   17   81 1    
    36   17   82 1    
    37   18   19 1    
    38   18   22 1    
    39   18   83 1    
    40   19   20 am   BACKBONE|DICT|INTERRES
    41   19   21 2    
    42   20   84 1    
    43   20   85 1    
    44   22   23 am   BACKBONE|DICT|INTERRES
    45   22   86 1    
    46   23   24 2    
    47   23   25 1    
    48   25   26 1    
    49   25   27 1    
    50   25   87 1    
    51   26   88 1    
    52   26   89 1    
    53   26   90 1    
    54   27   28 am   BACKBONE|DICT|INTERRES
    55   27   91 1    
    56   28   29 2    
    57   28   30 1    
    58   30   31 1    
    59   30   32 1    
    60   30   92 1    
    61   31   93 1    
    62   31   94 1    
    63   31   95 1    
    64   32   33 am   BACKBONE|DICT|INTERRES
    65   32   96 1    
    66   33   34 2    
    67   33   35 1    
    68   35   36 1    
    69   35   37 1    
    70   35   97 1    
    71   36   98 1    
    72   36   99 1    
    73   36  100 1    
    74   37   38 am   BACKBONE|DICT|INTERRES
    75   37  101 1    
    76   38   39 2    
    77   38   40 1    
    78   40   41 1    
    79   40   42 1    
    80   40  102 1    
    81   41  103 1    
    82   41  104 1    
    83   41  105 1    
    84   42   43 am   BACKBONE|DICT|INTERRES
    85   42  106 1    
    86   43   44 2    
    87   43   45 1    
    88   45   46 1    
    89   45   49 1    
    90   45  107 1    
    91   46   47 1    
    92   46  108 1    
    93   46  109 1    
    94   47   48 1    
    95   48  110 1    
    96   48  111 1    
    97   49   50 am   BACKBONE|DICT|INTERRES
    98   49  112 1    
    99   50   51 2    
   100   50   52 1    
   101   52   53 1    
   102   52   54 1    
   103   52  113 1    
   104   53  114 1    
   105   53  115 1    
   106   53  116 1    
   107   54   55 am   BACKBONE|DICT|INTERRES
   108   54  117 1    
   109   55   56 2    
   110   55   57 1    
   111   57   58 1    
   112   57   59 1    
   113   57  118 1    
   114   58  119 1    
   115   58  120 1    
   116   58  121 1    
   117   59   60 am   BACKBONE|DICT|INTERRES
   118   59  122 1    
   119   60   61 2    
   120   60   62 1    
   121   62   63 1    
   122   62   64 1    
   123   62  123 1    
   124   63  124 1    
   125   63  125 1    
   126   63  126 1    
   127   64   65 am   BACKBONE|DICT|INTERRES
   128   64  127 1    
   129   65   66 2    
@<TRIPOS>SUBSTRUCTURE
     1 UNK         1 GROUP             0       ****    0 ROOT    
