@<TRIPOS>MOLECULE
3R135
127   129    1
SMALL
USER_CHARGES


@<TRIPOS>ATOM
      1 CA        -81.8799   30.4860  -77.9617 C.3       0 UNK        -0.1998 
      2 C         -81.2071   29.3136  -77.2639 C.2       0 UNK         0.4909 
      3 O         -81.2776   28.1862  -77.7541 O.2       0 UNK        -0.5240 
      4 N         -80.5473   29.5716  -76.1284 N.am      1 UNK        -0.4739 
      5 CA        -79.9031   28.5611  -75.2857 C.3       1 UNK         0.0864 
      6 C6        -78.8574   29.1885  -74.3292 C.3       11 UNK        -0.0881 
      7 S7        -79.4512   30.6144  -73.3399 S.3       11 UNK        -0.2682 
      8 C8        -79.9374   29.8733  -71.7461 C.3       11 UNK         0.0289 
      9 C9        -78.7894   29.1317  -71.0802 C.ar      11 UNK        -0.0687 
     10 C10       -78.7113   27.7436  -71.1880 C.ar      11 UNK        -0.0823 
     11 C11       -77.6300   27.0449  -70.6507 C.ar      11 UNK        -0.0830 
     12 C12       -76.6421   27.7430  -69.9484 C.ar      11 UNK        -0.1021 
     13 C13       -76.7269   29.1325  -69.8008 C.ar      11 UNK        -0.0753 
     14 C14       -77.8008   29.8226  -70.3748 C.ar      11 UNK        -0.0933 
     15 C15       -75.6693   29.8888  -69.0073 C.3       11 UNK         0.0166 
     16 S16       -74.0588   29.9547  -69.8562 S.3       11 UNK        -0.2615 
     17 C17       -74.4568   30.8792  -71.3812 C.3       11 UNK        -0.0865 
     18 CA        -74.2795   30.0170  -72.6625 C.3       10 UNK         0.0862 
     19 C         -74.8305   30.7256  -73.9367 C.2       10 UNK         0.5551 
     20 N         -74.2101   30.5743  -75.1022 N.am      10 UNK        -0.7319 
     21 O         -75.8299   31.4361  -73.8734 O.2       10 UNK        -0.5018 
     22 N         -72.8783   29.6073  -72.8413 N.am      10 UNK        -0.4509 
     23 C         -72.4025   28.3648  -72.7397 C.2       10 UNK         0.4899 
     24 O         -73.0499   27.3856  -72.3680 O.2       10 UNK        -0.4839 
     25 CA        -70.9373   28.1792  -73.1661 C.3       9 UNK         0.0222 
     26 CB        -70.0930   27.6111  -72.0130 C.3       9 UNK        -0.1966 
     27 N         -70.8427   27.2931  -74.3272 N.am      9 UNK        -0.4218 
     28 C         -71.3949   27.5316  -75.5252 C.2       9 UNK         0.5020 
     29 O         -71.9709   28.5846  -75.8157 O.2       9 UNK        -0.5274 
     30 CA        -71.2849   26.4164  -76.5763 C.3       8 UNK         0.0270 
     31 CB        -71.1727   24.9959  -75.9756 C.3       8 UNK        -0.1976 
     32 N         -72.4414   26.4994  -77.4640 N.am      8 UNK        -0.4313 
     33 C         -72.4931   26.0430  -78.7206 C.2       8 UNK         0.5041 
     34 O         -71.5389   25.5053  -79.2867 O.2       8 UNK        -0.5577 
     35 CA        -73.8273   26.2078  -79.4700 C.3       7 UNK         0.0284 
     36 CB        -74.0446   25.1135  -80.5324 C.3       7 UNK        -0.1958 
     37 N         -74.9539   26.1917  -78.5364 N.am      7 UNK        -0.4454 
     38 C         -75.9299   27.1076  -78.4831 C.2       7 UNK         0.5089 
     39 O         -75.9988   28.0779  -79.2382 O.2       7 UNK        -0.5125 
     40 CA        -77.0275   26.9164  -77.4167 C.3       6 UNK         0.0408 
     41 CB        -78.2671   26.2806  -78.0686 C.3       6 UNK        -0.1791 
     42 N         -76.6132   26.1021  -76.2676 N.am      6 UNK        -0.4762 
     43 C         -75.6347   26.4335  -75.4076 C.2       6 UNK         0.5007 
     44 O         -75.0530   27.5151  -75.4443 O.2       6 UNK        -0.5032 
     45 CA        -75.1647   25.3758  -74.3819 C.3       5 UNK         0.0783 
     46 C46       -75.6832   25.6883  -72.9545 C.3       11 UNK        -0.0857 
     47 S47       -77.3887   25.1237  -72.6256 S.3       11 UNK        -0.2512 
     48 C48       -77.5358   25.5409  -70.8572 C.3       11 UNK         0.0225 
     49 N         -75.4558   23.9909  -74.7652 N.am      5 UNK        -0.4615 
     50 C         -75.1330   23.3754  -75.9097 C.2       4 UNK         0.5053 
     51 O         -74.4083   23.8680  -76.7731 O.2       4 UNK        -0.5105 
     52 CA        -75.8071   22.0132  -76.1672 C.3       4 UNK         0.0263 
     53 CB        -74.8531   20.8675  -75.7953 C.3       4 UNK        -0.1981 
     54 N         -77.0883   21.8301  -75.4639 N.am      4 UNK        -0.4224 
     55 C         -78.1611   22.6309  -75.5735 C.2       3 UNK         0.4895 
     56 O         -78.1909   23.6206  -76.3071 O.2       3 UNK        -0.5091 
     57 CA        -79.3844   22.3171  -74.6958 C.3       3 UNK         0.0250 
     58 CB        -79.0713   21.4101  -73.4872 C.3       3 UNK        -0.1996 
     59 N         -79.9434   23.5791  -74.2084 N.am      3 UNK        -0.4254 
     60 C         -81.2029   23.9946  -74.3870 C.2       2 UNK         0.5004 
     61 O         -82.0735   23.3425  -74.9644 O.2       2 UNK        -0.5226 
     62 CA        -81.5426   25.3849  -73.8381 C.3       2 UNK         0.0269 
     63 CB        -81.5481   25.3965  -72.2976 C.3       2 UNK        -0.1926 
     64 N         -80.6217   26.3915  -74.3759 N.am      2 UNK        -0.4687 
     65 C         -80.9429   27.6799  -74.5582 C.2       1 UNK         0.5165 
     66 O         -82.0103   28.1734  -74.1841 O.2       1 UNK        -0.5079 
     67 H67       -81.7258   31.4223  -77.4255 H         1 UNK         0.0900 
     68 H68       -82.9527   30.3111  -78.0376 H         1 UNK         0.0900 
     69 H69       -81.4809   30.6023  -78.9690 H         1 UNK         0.0900 
     70 H70       -80.5476   30.5070  -75.7460 H         1 UNK         0.2959 
     71 H71       -79.3570   27.9001  -75.9563 H         1 UNK         0.1079 
     72 H72       -78.4019   28.4277  -73.6978 H         1 UNK         0.0837 
     73 H73       -78.0268   29.5638  -74.9297 H         1 UNK         0.0837 
     74 H74       -80.7880   29.2082  -71.9006 H         1 UNK         0.0685 
     75 H75       -80.2907   30.6653  -71.0844 H         1 UNK         0.0685 
     76 H76       -79.4712   27.2088  -71.7375 H         1 UNK         0.1434 
     77 H77       -75.8014   27.2116  -69.5233 H         1 UNK         0.1329 
     78 H78       -77.8658   30.8981  -70.2825 H         1 UNK         0.1335 
     79 H79       -75.9991   30.9062  -68.7908 H         1 UNK         0.0680 
     80 H80       -75.5348   29.4018  -68.0405 H         1 UNK         0.0680 
     81 H81       -73.8171   31.7620  -71.4276 H         1 UNK         0.1032 
     82 H82       -75.4772   31.2581  -71.3087 H         1 UNK         0.1032 
     83 H83       -74.9063   29.1302  -72.5521 H         1 UNK         0.0461 
     84 H84       -74.5796   31.0373  -75.9161 H         1 UNK         0.3453 
     85 H85       -73.4496   29.9107  -75.2035 H         1 UNK         0.3453 
     86 H86       -72.2670   30.3296  -73.1944 H         1 UNK         0.2984 
     87 H87       -70.5173   29.1469  -73.4490 H         1 UNK         0.0554 
     88 H88       -69.0426   27.5261  -72.2917 H         1 UNK         0.0847 
     89 H89       -70.4408   26.6245  -71.7036 H         1 UNK         0.0847 
     90 H90       -70.1439   28.2613  -71.1385 H         1 UNK         0.0847 
     91 H91       -70.4077   26.3955  -74.1731 H         1 UNK         0.3141 
     92 H92       -70.3840   26.6244  -77.1571 H         1 UNK         0.0743 
     93 H93       -72.0049   24.7705  -75.3087 H         1 UNK         0.0784 
     94 H94       -71.1690   24.2353  -76.7567 H         1 UNK         0.0784 
     95 H95       -70.2470   24.8677  -75.4141 H         1 UNK         0.0784 
     96 H96       -73.2314   27.0124  -77.0890 H         1 UNK         0.3213 
     97 H97       -73.7697   27.1720  -79.9792 H         1 UNK         0.0855 
     98 H98       -74.0545   24.1191  -80.0842 H         1 UNK         0.0814 
     99 H99       -73.2528   25.1284  -81.2824 H         1 UNK         0.0814 
    100 H100      -74.9887   25.2543  -81.0587 H         1 UNK         0.0814 
    101 H101      -74.9506   25.4285  -77.8636 H         1 UNK         0.3105 
    102 H102      -77.2939   27.9070  -77.0442 H         1 UNK         0.0547 
    103 H103      -78.6746   26.9290  -78.8455 H         1 UNK         0.0837 
    104 H104      -78.0274   25.3243  -78.5355 H         1 UNK         0.0837 
    105 H105      -79.0648   26.0996  -77.3494 H         1 UNK         0.0837 
    106 H106      -77.0447   25.1840  -76.1916 H         1 UNK         0.3020 
    107 H107      -74.0774   25.4686  -74.3557 H         1 UNK         0.1245 
    108 H108      -75.6173   26.7562  -72.7370 H         1 UNK         0.0781 
    109 H109      -75.0285   25.2047  -72.2279 H         1 UNK         0.0781 
    110 H110      -76.6911   25.1193  -70.3102 H         1 UNK         0.0836 
    111 H111      -78.4313   25.0677  -70.4522 H         1 UNK         0.0836 
    112 H112      -76.0673   23.5006  -74.1295 H         1 UNK         0.3022 
    113 H113      -76.0126   21.9559  -77.2381 H         1 UNK         0.0747 
    114 H114      -75.2711   19.8978  -76.0663 H         1 UNK         0.0793 
    115 H115      -73.9020   20.9657  -76.3211 H         1 UNK         0.0793 
    116 H116      -74.6345   20.8541  -74.7267 H         1 UNK         0.0793 
    117 H117      -77.1463   21.0415  -74.8356 H         1 UNK         0.3047 
    118 H118      -80.1026   21.8034  -75.3381 H         1 UNK         0.0822 
    119 H119      -78.7464   20.4178  -73.8021 H         1 UNK         0.0807 
    120 H120      -79.9586   21.2661  -72.8701 H         1 UNK         0.0807 
    121 H121      -78.2950   21.8344  -72.8486 H         1 UNK         0.0807 
    122 H122      -79.2908   24.1864  -73.7302 H         1 UNK         0.2946 
    123 H123      -82.5534   25.6187  -74.1822 H         1 UNK         0.1144 
    124 H124      -82.2583   24.6657  -71.9088 H         1 UNK         0.0793 
    125 H125      -81.8441   26.3702  -71.9068 H         1 UNK         0.0793 
    126 H126      -80.5714   25.1479  -71.8832 H         1 UNK         0.0793 
    127 H127      -79.7505   26.0413  -74.7496 H         1 UNK         0.2896 
@<TRIPOS>BOND
     1    1    2 1    
     2    1   67 1    
     3    1   68 1    
     4    1   69 1    
     5    2    3 2    
     6    2    4 am   BACKBONE|DICT|INTERRES
     7    4    5 1    
     8    4   70 1    
     9    5    6 1    
    10    5   65 1    
    11    5   71 1    
    12    6    7 1    
    13    6   72 1    
    14    6   73 1    
    15    7    8 1    
    16    8    9 1    
    17    8   74 1    
    18    8   75 1    
    19    9   10 ar   
    20    9   14 ar   
    21   10   11 ar   
    22   10   76 1    
    23   11   12 ar   
    24   11   48 1    
    25   12   13 ar   
    26   12   77 1    
    27   13   14 ar   
    28   13   15 1    
    29   14   78 1    
    30   15   16 1    
    31   15   79 1    
    32   15   80 1    
    33   16   17 1    
    34   17   18 1    
    35   17   81 1    
    36   17   82 1    
    37   18   19 1    
    38   18   22 1    
    39   18   83 1    
    40   19   20 am   BACKBONE|DICT|INTERRES
    41   19   21 2    
    42   20   84 1    
    43   20   85 1    
    44   22   23 am   BACKBONE|DICT|INTERRES
    45   22   86 1    
    46   23   24 2    
    47   23   25 1    
    48   25   26 1    
    49   25   27 1    
    50   25   87 1    
    51   26   88 1    
    52   26   89 1    
    53   26   90 1    
    54   27   28 am   BACKBONE|DICT|INTERRES
    55   27   91 1    
    56   28   29 2    
    57   28   30 1    
    58   30   31 1    
    59   30   32 1    
    60   30   92 1    
    61   31   93 1    
    62   31   94 1    
    63   31   95 1    
    64   32   33 am   BACKBONE|DICT|INTERRES
    65   32   96 1    
    66   33   34 2    
    67   33   35 1    
    68   35   36 1    
    69   35   37 1    
    70   35   97 1    
    71   36   98 1    
    72   36   99 1    
    73   36  100 1    
    74   37   38 am   BACKBONE|DICT|INTERRES
    75   37  101 1    
    76   38   39 2    
    77   38   40 1    
    78   40   41 1    
    79   40   42 1    
    80   40  102 1    
    81   41  103 1    
    82   41  104 1    
    83   41  105 1    
    84   42   43 am   BACKBONE|DICT|INTERRES
    85   42  106 1    
    86   43   44 2    
    87   43   45 1    
    88   45   46 1    
    89   45   49 1    
    90   45  107 1    
    91   46   47 1    
    92   46  108 1    
    93   46  109 1    
    94   47   48 1    
    95   48  110 1    
    96   48  111 1    
    97   49   50 am   BACKBONE|DICT|INTERRES
    98   49  112 1    
    99   50   51 2    
   100   50   52 1    
   101   52   53 1    
   102   52   54 1    
   103   52  113 1    
   104   53  114 1    
   105   53  115 1    
   106   53  116 1    
   107   54   55 am   BACKBONE|DICT|INTERRES
   108   54  117 1    
   109   55   56 2    
   110   55   57 1    
   111   57   58 1    
   112   57   59 1    
   113   57  118 1    
   114   58  119 1    
   115   58  120 1    
   116   58  121 1    
   117   59   60 am   BACKBONE|DICT|INTERRES
   118   59  122 1    
   119   60   61 2    
   120   60   62 1    
   121   62   63 1    
   122   62   64 1    
   123   62  123 1    
   124   63  124 1    
   125   63  125 1    
   126   63  126 1    
   127   64   65 am   BACKBONE|DICT|INTERRES
   128   64  127 1    
   129   65   66 2    
@<TRIPOS>SUBSTRUCTURE
     1 UNK         1 GROUP             0       ****    0 ROOT    
