@<TRIPOS>MOLECULE
3R135
127   129    1
SMALL
USER_CHARGES


@<TRIPOS>ATOM
      1 CA        -78.5979   30.4676  -76.1734 C.3       0 UNK        -0.1998 
      2 C         -78.9178   29.4402  -75.0984 C.2       0 UNK         0.4909 
      3 O         -78.0955   28.5701  -74.8235 O.2       0 UNK        -0.5240 
      4 N         -80.1055   29.5330  -74.4874 N.am      1 UNK        -0.4739 
      5 CA        -80.5944   28.5655  -73.5023 C.3       1 UNK         0.0864 
      6 C6        -81.7113   29.1824  -72.6227 C.3       11 UNK        -0.0881 
      7 S7        -82.0275   28.2194  -71.1034 S.3       11 UNK        -0.2682 
      8 C8        -81.0434   29.1257  -69.8674 C.3       11 UNK         0.0289 
      9 C9        -79.5545   29.0838  -70.1808 C.ar      11 UNK        -0.0687 
     10 C10       -78.8397   27.8908  -70.0420 C.ar      11 UNK        -0.0823 
     11 C11       -77.4756   27.8401  -70.3441 C.ar      11 UNK        -0.0830 
     12 C12       -76.8196   29.0047  -70.7599 C.ar      11 UNK        -0.1021 
     13 C13       -77.5211   30.2085  -70.8897 C.ar      11 UNK        -0.0753 
     14 C14       -78.8904   30.2374  -70.6079 C.ar      11 UNK        -0.0933 
     15 C15       -76.8039   31.4930  -71.2873 C.3       11 UNK         0.0166 
     16 S16       -76.4865   31.5978  -73.0786 S.3       11 UNK        -0.2615 
     17 C17       -74.7933   30.9281  -73.2003 C.3       11 UNK        -0.0865 
     18 CA        -74.6368   29.8695  -74.3300 C.3       10 UNK         0.0862 
     19 C         -74.3778   30.4793  -75.7327 C.2       10 UNK         0.5551 
     20 N         -73.3118   31.2485  -75.9071 N.am      10 UNK        -0.7319 
     21 O         -75.1189   30.2183  -76.6772 O.2       10 UNK        -0.5018 
     22 N         -73.6571   28.8232  -74.0179 N.am      10 UNK        -0.4509 
     23 C         -72.3780   28.9846  -73.6543 C.2       10 UNK         0.4899 
     24 O         -71.8474   30.0774  -73.4546 O.2       10 UNK        -0.4839 
     25 CA        -71.5467   27.7047  -73.5113 C.3       9 UNK         0.0222 
     26 CB        -71.9327   26.9300  -72.2389 C.3       9 UNK        -0.1966 
     27 N         -71.7246   26.8552  -74.6879 N.am      9 UNK        -0.4218 
     28 C         -70.7542   26.1918  -75.3251 C.2       9 UNK         0.5020 
     29 O         -69.5802   26.1536  -74.9531 O.2       9 UNK        -0.5274 
     30 CA        -71.1647   25.4514  -76.6100 C.3       8 UNK         0.0270 
     31 CB        -71.7573   24.0730  -76.2739 C.3       8 UNK        -0.1976 
     32 N         -72.1234   26.2035  -77.4241 N.am      8 UNK        -0.4313 
     33 C         -71.8856   27.3695  -78.0382 C.2       8 UNK         0.5041 
     34 O         -70.7913   27.9343  -78.0197 O.2       8 UNK        -0.5577 
     35 CA        -73.0497   28.0367  -78.7987 C.3       7 UNK         0.0284 
     36 CB        -73.0428   27.6326  -80.2859 C.3       7 UNK        -0.1958 
     37 N         -74.3789   27.8518  -78.1960 N.am      7 UNK        -0.4454 
     38 C         -75.0928   26.7265  -78.0591 C.2       7 UNK         0.5089 
     39 O         -74.7251   25.6180  -78.4531 O.2       7 UNK        -0.5125 
     40 CA        -76.4235   26.8616  -77.3039 C.3       6 UNK         0.0408 
     41 CB        -77.6100   26.5315  -78.2228 C.3       6 UNK        -0.1791 
     42 N         -76.5060   26.0269  -76.1030 N.am      6 UNK        -0.4762 
     43 C         -75.5935   25.9223  -75.1252 C.2       6 UNK         0.5007 
     44 O         -74.4754   26.4377  -75.1516 O.2       6 UNK        -0.5032 
     45 CA        -76.0140   25.1345  -73.8765 C.3       5 UNK         0.0783 
     46 C46       -76.9034   26.0292  -72.9803 C.3       11 UNK        -0.0857 
     47 S47       -77.3057   25.2604  -71.3791 S.3       11 UNK        -0.2512 
     48 C48       -76.7117   26.5276  -70.2092 C.3       11 UNK         0.0225 
     49 N         -76.6747   23.8872  -74.2637 N.am      5 UNK        -0.4615 
     50 C         -76.0362   22.7403  -74.5293 C.2       4 UNK         0.5053 
     51 O         -74.8167   22.6027  -74.4328 O.2       4 UNK        -0.5105 
     52 CA        -76.8906   21.5305  -74.9546 C.3       4 UNK         0.0263 
     53 CB        -77.1499   20.6134  -73.7481 C.3       4 UNK        -0.1981 
     54 N         -78.1745   21.9103  -75.5481 N.am      4 UNK        -0.4224 
     55 C         -78.3313   22.3748  -76.7961 C.2       3 UNK         0.4895 
     56 O         -77.4227   22.4372  -77.6237 O.2       3 UNK        -0.5091 
     57 CA        -79.7375   22.8790  -77.1809 C.3       3 UNK         0.0250 
     58 CB        -80.5316   21.7690  -77.8882 C.3       3 UNK        -0.1996 
     59 N         -80.5256   23.3990  -76.0533 N.am      3 UNK        -0.4254 
     60 C         -80.1533   24.4272  -75.2787 C.2       2 UNK         0.5004 
     61 O         -79.0855   25.0242  -75.4207 O.2       2 UNK        -0.5226 
     62 CA        -81.0830   24.7895  -74.1085 C.3       2 UNK         0.0269 
     63 CB        -80.9241   23.7695  -72.9679 C.3       2 UNK        -0.1926 
     64 N         -80.7942   26.1227  -73.5760 N.am      2 UNK        -0.4687 
     65 C         -81.0583   27.2735  -74.2076 C.2       1 UNK         0.5165 
     66 O         -81.6692   27.3434  -75.2785 O.2       1 UNK        -0.5079 
     67 H67       -78.3626   29.9655  -77.1114 H         1 UNK         0.0900 
     68 H68       -77.7303   31.0575  -75.8794 H         1 UNK         0.0900 
     69 H69       -79.4299   31.1489  -76.3494 H         1 UNK         0.0900 
     70 H70       -80.7625   30.2435  -74.7750 H         1 UNK         0.2959 
     71 H71       -79.7491   28.3127  -72.8580 H         1 UNK         0.1079 
     72 H72       -81.4418   30.1994  -72.3333 H         1 UNK         0.0837 
     73 H73       -82.6440   29.2732  -73.1830 H         1 UNK         0.0837 
     74 H74       -81.4021   30.1543  -69.8044 H         1 UNK         0.0685 
     75 H75       -81.2155   28.6820  -68.8858 H         1 UNK         0.0685 
     76 H76       -79.3505   26.9950  -69.7153 H         1 UNK         0.1434 
     77 H77       -75.7617   28.9750  -70.9778 H         1 UNK         0.1329 
     78 H78       -79.4385   31.1640  -70.7103 H         1 UNK         0.1335 
     79 H79       -77.4073   32.3564  -71.0030 H         1 UNK         0.0680 
     80 H80       -75.8733   31.5914  -70.7268 H         1 UNK         0.0680 
     81 H81       -74.5321   30.4768  -72.2436 H         1 UNK         0.1032 
     82 H82       -74.0930   31.7560  -73.3211 H         1 UNK         0.1032 
     83 H83       -75.5777   29.3225  -74.3992 H         1 UNK         0.0461 
     84 H84       -72.6623   31.3872  -75.1459 H         1 UNK         0.3453 
     85 H85       -73.1259   31.6468  -76.8135 H         1 UNK         0.3453 
     86 H86       -73.9802   27.8841  -74.2342 H         1 UNK         0.2984 
     87 H87       -70.5005   28.0073  -73.4291 H         1 UNK         0.0554 
     88 H88       -71.2886   26.0622  -72.0964 H         1 UNK         0.0847 
     89 H89       -72.9641   26.5768  -72.2739 H         1 UNK         0.0847 
     90 H90       -71.8307   27.5581  -71.3529 H         1 UNK         0.0847 
     91 H91       -72.6676   26.7896  -75.0649 H         1 UNK         0.3141 
     92 H92       -70.2644   25.3021  -77.2095 H         1 UNK         0.0743 
     93 H93       -72.6830   24.1585  -75.7023 H         1 UNK         0.0784 
     94 H94       -71.9750   23.5035  -77.1775 H         1 UNK         0.0784 
     95 H95       -71.0599   23.4821  -75.6786 H         1 UNK         0.0784 
     96 H96       -73.0505   25.8028  -77.5430 H         1 UNK         0.3213 
     97 H97       -72.8645   29.1114  -78.7529 H         1 UNK         0.0855 
     98 H98       -72.0871   27.8801  -80.7500 H         1 UNK         0.0814 
     99 H99       -73.8187   28.1571  -80.8434 H         1 UNK         0.0814 
    100 H100      -73.1976   26.5617  -80.4204 H         1 UNK         0.0814 
    101 H101      -74.7600   28.6927  -77.7658 H         1 UNK         0.3105 
    102 H102      -76.5338   27.8956  -76.9738 H         1 UNK         0.0547 
    103 H103      -77.5920   27.1458  -79.1238 H         1 UNK         0.0837 
    104 H104      -77.5938   25.4866  -78.5359 H         1 UNK         0.0837 
    105 H105      -78.5606   26.7165  -77.7215 H         1 UNK         0.0837 
    106 H106      -77.4140   25.5988  -75.9334 H         1 UNK         0.3020 
    107 H107      -75.1039   24.8983  -73.3197 H         1 UNK         0.1245 
    108 H108      -77.8426   26.2710  -73.4786 H         1 UNK         0.0781 
    109 H109      -76.4117   26.9878  -72.8042 H         1 UNK         0.0781 
    110 H110      -75.6414   26.6791  -70.3591 H         1 UNK         0.0836 
    111 H111      -76.8275   26.1510  -69.1921 H         1 UNK         0.0836 
    112 H112      -77.6688   23.9571  -74.4413 H         1 UNK         0.3022 
    113 H113      -76.3181   20.9673  -75.6949 H         1 UNK         0.0747 
    114 H114      -77.6981   19.7174  -74.0403 H         1 UNK         0.0793 
    115 H115      -76.2111   20.2848  -73.2998 H         1 UNK         0.0793 
    116 H116      -77.7220   21.1205  -72.9698 H         1 UNK         0.0793 
    117 H117      -78.9843   21.8731  -74.9470 H         1 UNK         0.3047 
    118 H118      -79.5987   23.7017  -77.8859 H         1 UNK         0.0822 
    119 H119      -81.4870   22.1390  -78.2608 H         1 UNK         0.0807 
    120 H120      -80.7316   20.9280  -77.2230 H         1 UNK         0.0807 
    121 H121      -79.9807   21.3814  -78.7465 H         1 UNK         0.0807 
    122 H122      -81.4080   22.9420  -75.8706 H         1 UNK         0.2946 
    123 H123      -82.1147   24.7750  -74.4674 H         1 UNK         0.1144 
    124 H124      -81.1805   22.7618  -73.2969 H         1 UNK         0.0793 
    125 H125      -81.5801   24.0078  -72.1302 H         1 UNK         0.0793 
    126 H126      -79.9003   23.7403  -72.5915 H         1 UNK         0.0793 
    127 H127      -80.2882   26.1560  -72.7031 H         1 UNK         0.2896 
@<TRIPOS>BOND
     1    1    2 1    
     2    1   67 1    
     3    1   68 1    
     4    1   69 1    
     5    2    3 2    
     6    2    4 am   BACKBONE|DICT|INTERRES
     7    4    5 1    
     8    4   70 1    
     9    5    6 1    
    10    5   65 1    
    11    5   71 1    
    12    6    7 1    
    13    6   72 1    
    14    6   73 1    
    15    7    8 1    
    16    8    9 1    
    17    8   74 1    
    18    8   75 1    
    19    9   10 ar   
    20    9   14 ar   
    21   10   11 ar   
    22   10   76 1    
    23   11   12 ar   
    24   11   48 1    
    25   12   13 ar   
    26   12   77 1    
    27   13   14 ar   
    28   13   15 1    
    29   14   78 1    
    30   15   16 1    
    31   15   79 1    
    32   15   80 1    
    33   16   17 1    
    34   17   18 1    
    35   17   81 1    
    36   17   82 1    
    37   18   19 1    
    38   18   22 1    
    39   18   83 1    
    40   19   20 am   BACKBONE|DICT|INTERRES
    41   19   21 2    
    42   20   84 1    
    43   20   85 1    
    44   22   23 am   BACKBONE|DICT|INTERRES
    45   22   86 1    
    46   23   24 2    
    47   23   25 1    
    48   25   26 1    
    49   25   27 1    
    50   25   87 1    
    51   26   88 1    
    52   26   89 1    
    53   26   90 1    
    54   27   28 am   BACKBONE|DICT|INTERRES
    55   27   91 1    
    56   28   29 2    
    57   28   30 1    
    58   30   31 1    
    59   30   32 1    
    60   30   92 1    
    61   31   93 1    
    62   31   94 1    
    63   31   95 1    
    64   32   33 am   BACKBONE|DICT|INTERRES
    65   32   96 1    
    66   33   34 2    
    67   33   35 1    
    68   35   36 1    
    69   35   37 1    
    70   35   97 1    
    71   36   98 1    
    72   36   99 1    
    73   36  100 1    
    74   37   38 am   BACKBONE|DICT|INTERRES
    75   37  101 1    
    76   38   39 2    
    77   38   40 1    
    78   40   41 1    
    79   40   42 1    
    80   40  102 1    
    81   41  103 1    
    82   41  104 1    
    83   41  105 1    
    84   42   43 am   BACKBONE|DICT|INTERRES
    85   42  106 1    
    86   43   44 2    
    87   43   45 1    
    88   45   46 1    
    89   45   49 1    
    90   45  107 1    
    91   46   47 1    
    92   46  108 1    
    93   46  109 1    
    94   47   48 1    
    95   48  110 1    
    96   48  111 1    
    97   49   50 am   BACKBONE|DICT|INTERRES
    98   49  112 1    
    99   50   51 2    
   100   50   52 1    
   101   52   53 1    
   102   52   54 1    
   103   52  113 1    
   104   53  114 1    
   105   53  115 1    
   106   53  116 1    
   107   54   55 am   BACKBONE|DICT|INTERRES
   108   54  117 1    
   109   55   56 2    
   110   55   57 1    
   111   57   58 1    
   112   57   59 1    
   113   57  118 1    
   114   58  119 1    
   115   58  120 1    
   116   58  121 1    
   117   59   60 am   BACKBONE|DICT|INTERRES
   118   59  122 1    
   119   60   61 2    
   120   60   62 1    
   121   62   63 1    
   122   62   64 1    
   123   62  123 1    
   124   63  124 1    
   125   63  125 1    
   126   63  126 1    
   127   64   65 am   BACKBONE|DICT|INTERRES
   128   64  127 1    
   129   65   66 2    
@<TRIPOS>SUBSTRUCTURE
     1 UNK         1 GROUP             0       ****    0 ROOT    
