@<TRIPOS>MOLECULE
3R135
127   129    1
SMALL
USER_CHARGES


@<TRIPOS>ATOM
      1 CA        -83.0534   27.6203  -71.7198 C.3       0 UNK        -0.1998 
      2 C         -82.1989   27.4793  -72.9694 C.2       0 UNK         0.4909 
      3 O         -81.4993   26.4790  -73.1191 O.2       0 UNK        -0.5240 
      4 N         -82.2653   28.4654  -73.8767 N.am      1 UNK        -0.4739 
      5 CA        -81.4717   28.5782  -75.1154 C.3       1 UNK         0.0864 
      6 C6        -79.9593   28.8084  -74.8430 C.3       11 UNK        -0.0881 
      7 S7        -79.6228   30.3807  -73.9811 S.3       11 UNK        -0.2682 
      8 C8        -79.2986   29.8381  -72.2706 C.3       11 UNK         0.0289 
      9 C9        -78.0914   28.9155  -72.1399 C.ar      11 UNK        -0.0687 
     10 C10       -78.2265   27.6752  -71.5058 C.ar      11 UNK        -0.0823 
     11 C11       -77.1179   26.8413  -71.3283 C.ar      11 UNK        -0.0830 
     12 C12       -75.8722   27.2470  -71.8108 C.ar      11 UNK        -0.1021 
     13 C13       -75.7285   28.4699  -72.4701 C.ar      11 UNK        -0.0753 
     14 C14       -76.8366   29.3084  -72.6190 C.ar      11 UNK        -0.0933 
     15 C15       -74.3771   28.8575  -73.0431 C.3       11 UNK         0.0166 
     16 S16       -73.2587   29.4922  -71.7549 S.3       11 UNK        -0.2615 
     17 C17       -73.3431   31.2948  -72.0542 C.3       11 UNK        -0.0865 
     18 CA        -72.1329   31.8337  -72.8695 C.3       10 UNK         0.0862 
     19 C         -70.8149   31.8971  -72.0442 C.2       10 UNK         0.5551 
     20 N         -69.6974   31.3525  -72.5166 N.am      10 UNK        -0.7319 
     21 O         -70.7970   32.4782  -70.9617 O.2       10 UNK        -0.5018 
     22 N         -71.9798   31.1362  -74.1506 N.am      10 UNK        -0.4509 
     23 C         -72.6558   31.3633  -75.2753 C.2       10 UNK         0.4899 
     24 O         -73.4980   32.2524  -75.4001 O.2       10 UNK        -0.4839 
     25 CA        -72.3685   30.4256  -76.4634 C.3       9 UNK         0.0222 
     26 CB        -71.2706   31.0118  -77.3717 C.3       9 UNK        -0.1966 
     27 N         -72.0791   29.0232  -76.1116 N.am      9 UNK        -0.4218 
     28 C         -71.0244   28.5078  -75.4546 C.2       9 UNK         0.5020 
     29 O         -70.1322   29.2004  -74.9598 O.2       9 UNK        -0.5274 
     30 CA        -70.9435   26.9752  -75.2855 C.3       8 UNK         0.0270 
     31 CB        -71.0016   26.5788  -73.8002 C.3       8 UNK        -0.1976 
     32 N         -71.9763   26.2412  -76.0234 N.am      8 UNK        -0.4313 
     33 C         -71.9592   26.0390  -77.3507 C.2       8 UNK         0.5041 
     34 O         -71.0165   26.3643  -78.0732 O.2       8 UNK        -0.5577 
     35 CA        -73.2049   25.4010  -77.9996 C.3       7 UNK         0.0284 
     36 CB        -72.9576   23.9105  -78.2814 C.3       7 UNK        -0.1958 
     37 N         -74.4361   25.5386  -77.2162 N.am      7 UNK        -0.4454 
     38 C         -74.9907   26.6941  -76.8184 C.2       7 UNK         0.5089 
     39 O         -74.5541   27.8022  -77.1295 O.2       7 UNK        -0.5125 
     40 CA        -76.1971   26.6035  -75.8659 C.3       6 UNK         0.0408 
     41 CB        -77.4959   26.7713  -76.6643 C.3       6 UNK        -0.1791 
     42 N         -76.2689   25.3595  -75.0893 N.am      6 UNK        -0.4762 
     43 C         -75.3031   24.8651  -74.2946 C.2       6 UNK         0.5007 
     44 O         -74.2189   25.4232  -74.1165 O.2       6 UNK        -0.5032 
     45 CA        -75.5405   23.4836  -73.6465 C.3       5 UNK         0.0783 
     46 C46       -75.8294   23.5906  -72.1276 C.3       11 UNK        -0.0857 
     47 S47       -77.5319   24.1216  -71.7215 S.3       11 UNK        -0.2512 
     48 C48       -77.2617   25.5196  -70.5880 C.3       11 UNK         0.0225 
     49 N         -76.5456   22.6717  -74.3414 N.am      5 UNK        -0.4615 
     50 C         -76.4639   22.2402  -75.6067 C.2       4 UNK         0.5053 
     51 O         -75.4800   22.4220  -76.3247 O.2       4 UNK        -0.5105 
     52 CA        -77.6955   21.5164  -76.1838 C.3       4 UNK         0.0263 
     53 CB        -77.4715   19.9957  -76.1750 C.3       4 UNK        -0.1981 
     54 N         -78.9671   21.8203  -75.5106 N.am      4 UNK        -0.4224 
     55 C         -79.5334   23.0334  -75.4298 C.2       3 UNK         0.4895 
     56 O         -79.0011   24.0644  -75.8442 O.2       3 UNK        -0.5091 
     57 CA        -80.8991   23.0994  -74.7252 C.3       3 UNK         0.0250 
     58 CB        -80.7206   23.2293  -73.2054 C.3       3 UNK        -0.1996 
     59 N         -81.7098   24.2206  -75.2055 N.am      3 UNK        -0.4254 
     60 C         -82.3374   24.2427  -76.3912 C.2       2 UNK         0.5004 
     61 O         -82.3211   23.2994  -77.1841 O.2       2 UNK        -0.5226 
     62 CA        -83.1510   25.4996  -76.7578 C.3       2 UNK         0.0269 
     63 CB        -84.6573   25.2238  -76.6147 C.3       2 UNK        -0.1926 
     64 N         -82.8093   26.6754  -75.9549 N.am      2 UNK        -0.4687 
     65 C         -81.7125   27.4266  -76.1258 C.2       1 UNK         0.5165 
     66 O         -80.9221   27.2495  -77.0536 O.2       1 UNK        -0.5079 
     67 H67       -83.7495   26.7852  -71.6454 H         1 UNK         0.0900 
     68 H68       -83.6297   28.5453  -71.7210 H         1 UNK         0.0900 
     69 H69       -82.4202   27.6159  -70.8330 H         1 UNK         0.0900 
     70 H70       -82.8791   29.2486  -73.6982 H         1 UNK         0.2959 
     71 H71       -81.8463   29.4669  -75.6260 H         1 UNK         0.1079 
     72 H72       -79.5316   27.9704  -74.2905 H         1 UNK         0.0837 
     73 H73       -79.4049   28.8651  -75.7807 H         1 UNK         0.0837 
     74 H74       -80.1969   29.3634  -71.8754 H         1 UNK         0.0685 
     75 H75       -79.1269   30.7214  -71.6544 H         1 UNK         0.0685 
     76 H76       -79.1938   27.3628  -71.1359 H         1 UNK         0.1434 
     77 H77       -75.0089   26.6088  -71.6840 H         1 UNK         0.1329 
     78 H78       -76.7275   30.2623  -73.1166 H         1 UNK         0.1335 
     79 H79       -73.9222   27.9840  -73.5073 H         1 UNK         0.0680 
     80 H80       -74.4975   29.5832  -73.8475 H         1 UNK         0.0680 
     81 H81       -74.2730   31.5359  -72.5709 H         1 UNK         0.1032 
     82 H82       -73.4152   31.8031  -71.0910 H         1 UNK         0.1032 
     83 H83       -72.3441   32.8791  -73.1022 H         1 UNK         0.0461 
     84 H84       -69.6746   30.8714  -73.4035 H         1 UNK         0.3453 
     85 H85       -68.8563   31.4174  -71.9653 H         1 UNK         0.3453 
     86 H86       -71.2916   30.3892  -74.1705 H         1 UNK         0.2984 
     87 H87       -73.2879   30.3868  -77.0498 H         1 UNK         0.0554 
     88 H88       -71.1177   30.3945  -78.2570 H         1 UNK         0.0847 
     89 H89       -70.3148   31.0990  -76.8543 H         1 UNK         0.0847 
     90 H90       -71.5432   32.0103  -77.7161 H         1 UNK         0.0847 
     91 H91       -72.7889   28.3728  -76.4371 H         1 UNK         0.3141 
     92 H92       -69.9680   26.6701  -75.6699 H         1 UNK         0.0743 
     93 H93       -70.2128   27.0724  -73.2308 H         1 UNK         0.0784 
     94 H94       -71.9505   26.8515  -73.3404 H         1 UNK         0.0784 
     95 H95       -70.8672   25.5047  -73.6720 H         1 UNK         0.0784 
     96 H96       -72.7840   25.9340  -75.4883 H         1 UNK         0.3213 
     97 H97       -73.3672   25.9101  -78.9519 H         1 UNK         0.0855 
     98 H98       -72.0634   23.7696  -78.8903 H         1 UNK         0.0814 
     99 H99       -73.7914   23.4644  -78.8241 H         1 UNK         0.0814 
    100 H100      -72.8184   23.3443  -77.3594 H         1 UNK         0.0814 
    101 H101      -74.8645   24.6783  -76.8974 H         1 UNK         0.3105 
    102 H102      -76.1213   27.4265  -75.1539 H         1 UNK         0.0547 
    103 H103      -77.6028   26.0003  -77.4284 H         1 UNK         0.0837 
    104 H104      -78.3684   26.7091  -76.0159 H         1 UNK         0.0837 
    105 H105      -77.5278   27.7386  -77.1670 H         1 UNK         0.0837 
    106 H106      -77.1272   24.8262  -75.1880 H         1 UNK         0.3020 
    107 H107      -74.5911   22.9537  -73.7544 H         1 UNK         0.1245 
    108 H108      -75.1000   24.2399  -71.6408 H         1 UNK         0.0781 
    109 H109      -75.6853   22.6106  -71.6703 H         1 UNK         0.0781 
    110 H110      -76.3877   25.3351  -69.9616 H         1 UNK         0.0836 
    111 H111      -78.1095   25.5735  -69.9034 H         1 UNK         0.0836 
    112 H112      -77.3981   22.5009  -73.8284 H         1 UNK         0.3022 
    113 H113      -77.7941   21.8405  -77.2219 H         1 UNK         0.0747 
    114 H114      -78.2827   19.4708  -76.6799 H         1 UNK         0.0793 
    115 H115      -76.5481   19.7336  -76.6939 H         1 UNK         0.0793 
    116 H116      -77.3965   19.6045  -75.1596 H         1 UNK         0.0793 
    117 H117      -79.4643   21.0311  -75.1226 H         1 UNK         0.3047 
    118 H118      -81.4399   22.1730  -74.9307 H         1 UNK         0.0822 
    119 H119      -80.1371   22.4018  -72.8002 H         1 UNK         0.0807 
    120 H120      -81.6819   23.2311  -72.6915 H         1 UNK         0.0807 
    121 H121      -80.2042   24.1533  -72.9442 H         1 UNK         0.0807 
    122 H122      -81.7212   25.0514  -74.6226 H         1 UNK         0.2946 
    123 H123      -82.9417   25.7215  -77.8070 H         1 UNK         0.1144 
    124 H124      -84.9588   24.3726  -77.2270 H         1 UNK         0.0793 
    125 H125      -85.2504   26.0791  -76.9392 H         1 UNK         0.0793 
    126 H126      -84.9300   24.9960  -75.5835 H         1 UNK         0.0793 
    127 H127      -83.4087   26.8864  -75.1701 H         1 UNK         0.2896 
@<TRIPOS>BOND
     1    1    2 1    
     2    1   67 1    
     3    1   68 1    
     4    1   69 1    
     5    2    3 2    
     6    2    4 am   BACKBONE|DICT|INTERRES
     7    4    5 1    
     8    4   70 1    
     9    5    6 1    
    10    5   65 1    
    11    5   71 1    
    12    6    7 1    
    13    6   72 1    
    14    6   73 1    
    15    7    8 1    
    16    8    9 1    
    17    8   74 1    
    18    8   75 1    
    19    9   10 ar   
    20    9   14 ar   
    21   10   11 ar   
    22   10   76 1    
    23   11   12 ar   
    24   11   48 1    
    25   12   13 ar   
    26   12   77 1    
    27   13   14 ar   
    28   13   15 1    
    29   14   78 1    
    30   15   16 1    
    31   15   79 1    
    32   15   80 1    
    33   16   17 1    
    34   17   18 1    
    35   17   81 1    
    36   17   82 1    
    37   18   19 1    
    38   18   22 1    
    39   18   83 1    
    40   19   20 am   BACKBONE|DICT|INTERRES
    41   19   21 2    
    42   20   84 1    
    43   20   85 1    
    44   22   23 am   BACKBONE|DICT|INTERRES
    45   22   86 1    
    46   23   24 2    
    47   23   25 1    
    48   25   26 1    
    49   25   27 1    
    50   25   87 1    
    51   26   88 1    
    52   26   89 1    
    53   26   90 1    
    54   27   28 am   BACKBONE|DICT|INTERRES
    55   27   91 1    
    56   28   29 2    
    57   28   30 1    
    58   30   31 1    
    59   30   32 1    
    60   30   92 1    
    61   31   93 1    
    62   31   94 1    
    63   31   95 1    
    64   32   33 am   BACKBONE|DICT|INTERRES
    65   32   96 1    
    66   33   34 2    
    67   33   35 1    
    68   35   36 1    
    69   35   37 1    
    70   35   97 1    
    71   36   98 1    
    72   36   99 1    
    73   36  100 1    
    74   37   38 am   BACKBONE|DICT|INTERRES
    75   37  101 1    
    76   38   39 2    
    77   38   40 1    
    78   40   41 1    
    79   40   42 1    
    80   40  102 1    
    81   41  103 1    
    82   41  104 1    
    83   41  105 1    
    84   42   43 am   BACKBONE|DICT|INTERRES
    85   42  106 1    
    86   43   44 2    
    87   43   45 1    
    88   45   46 1    
    89   45   49 1    
    90   45  107 1    
    91   46   47 1    
    92   46  108 1    
    93   46  109 1    
    94   47   48 1    
    95   48  110 1    
    96   48  111 1    
    97   49   50 am   BACKBONE|DICT|INTERRES
    98   49  112 1    
    99   50   51 2    
   100   50   52 1    
   101   52   53 1    
   102   52   54 1    
   103   52  113 1    
   104   53  114 1    
   105   53  115 1    
   106   53  116 1    
   107   54   55 am   BACKBONE|DICT|INTERRES
   108   54  117 1    
   109   55   56 2    
   110   55   57 1    
   111   57   58 1    
   112   57   59 1    
   113   57  118 1    
   114   58  119 1    
   115   58  120 1    
   116   58  121 1    
   117   59   60 am   BACKBONE|DICT|INTERRES
   118   59  122 1    
   119   60   61 2    
   120   60   62 1    
   121   62   63 1    
   122   62   64 1    
   123   62  123 1    
   124   63  124 1    
   125   63  125 1    
   126   63  126 1    
   127   64   65 am   BACKBONE|DICT|INTERRES
   128   64  127 1    
   129   65   66 2    
@<TRIPOS>SUBSTRUCTURE
     1 UNK         1 GROUP             0       ****    0 ROOT    
