@<TRIPOS>MOLECULE
3R135
127   129    1
SMALL
USER_CHARGES


@<TRIPOS>ATOM
      1 CA        -75.6630   22.9300  -73.8630 C.3       0 UNK        -0.1998 
      2 C         -77.0024   22.7403  -73.1730 C.2       0 UNK         0.4909 
      3 O         -77.5740   21.6516  -73.2296 O.2       0 UNK        -0.5240 
      4 N         -77.5013   23.8019  -72.5283 N.am      1 UNK        -0.4739 
      5 CA        -78.7736   23.8874  -71.8020 C.3       1 UNK         0.0864 
      6 C6        -78.9233   25.2564  -71.0801 C.3       11 UNK        -0.0881 
      7 S7        -78.5005   26.7141  -72.1031 S.3       11 UNK        -0.2682 
      8 C8        -78.4286   28.0121  -70.8284 C.3       11 UNK         0.0289 
      9 C9        -78.1340   29.3840  -71.4227 C.ar      11 UNK        -0.0687 
     10 C10       -78.9656   29.9094  -72.4168 C.ar      11 UNK        -0.0823 
     11 C11       -78.7164   31.1713  -72.9651 C.ar      11 UNK        -0.0830 
     12 C12       -77.6424   31.9242  -72.4847 C.ar      11 UNK        -0.1021 
     13 C13       -76.8201   31.4264  -71.4703 C.ar      11 UNK        -0.0753 
     14 C14       -77.0600   30.1489  -70.9524 C.ar      11 UNK        -0.0933 
     15 C15       -75.7095   32.3023  -70.9096 C.3       11 UNK         0.0166 
     16 S16       -74.2109   32.2390  -71.9357 S.3       11 UNK        -0.2615 
     17 C17       -73.2886   30.9015  -71.1097 C.3       11 UNK        -0.0865 
     18 CA        -71.9772   30.5467  -71.8559 C.3       10 UNK         0.0862 
     19 C         -71.0849   29.6087  -70.9882 C.2       10 UNK         0.5551 
     20 N         -70.8086   28.3734  -71.3888 N.am      10 UNK        -0.7319 
     21 O         -70.6283   30.0184  -69.9238 O.2       10 UNK        -0.5018 
     22 N         -72.2576   30.0540  -73.2123 N.am      10 UNK        -0.4509 
     23 C         -71.3662   29.9602  -74.2061 C.2       10 UNK         0.4899 
     24 O         -70.2149   30.3936  -74.1356 O.2       10 UNK        -0.4839 
     25 CA        -71.8477   29.2447  -75.4871 C.3       9 UNK         0.0222 
     26 CB        -70.6831   28.6737  -76.3223 C.3       9 UNK        -0.1966 
     27 N         -72.8525   28.2002  -75.2392 N.am      9 UNK        -0.4218 
     28 C         -72.7384   27.1397  -74.4229 C.2       9 UNK         0.5020 
     29 O         -71.7531   26.9076  -73.7213 O.2       9 UNK        -0.5274 
     30 CA        -73.9379   26.1829  -74.3665 C.3       8 UNK         0.0270 
     31 CB        -75.0683   26.7733  -73.5085 C.3       8 UNK        -0.1976 
     32 N         -74.4501   25.8435  -75.6946 N.am      8 UNK        -0.4313 
     33 C         -73.7733   25.1350  -76.6113 C.2       8 UNK         0.5041 
     34 O         -72.6629   24.6388  -76.4189 O.2       8 UNK        -0.5577 
     35 CA        -74.4496   24.9472  -77.9761 C.3       7 UNK         0.0284 
     36 CB        -75.3917   23.7365  -77.9474 C.3       7 UNK        -0.1958 
     37 N         -75.1920   26.1437  -78.3737 N.am      7 UNK        -0.4454 
     38 C         -74.6196   27.2305  -78.9099 C.2       7 UNK         0.5089 
     39 O         -73.4261   27.3043  -79.2030 O.2       7 UNK        -0.5125 
     40 CA        -75.5259   28.4487  -79.1536 C.3       6 UNK         0.0408 
     41 CB        -76.1357   28.3905  -80.5630 C.3       6 UNK        -0.1791 
     42 N         -76.5987   28.5885  -78.1660 N.am      6 UNK        -0.4762 
     43 C         -76.4164   28.8741  -76.8680 C.2       6 UNK         0.5007 
     44 O         -75.3121   29.0217  -76.3451 O.2       6 UNK        -0.5032 
     45 CA        -77.6908   28.9908  -76.0112 C.3       5 UNK         0.0783 
     46 C46       -78.2981   30.4119  -76.1704 C.3       11 UNK        -0.0857 
     47 S47       -79.9506   30.5953  -75.4104 S.3       11 UNK        -0.2512 
     48 C48       -79.6288   31.7507  -74.0393 C.3       11 UNK         0.0225 
     49 N         -78.6765   27.9431  -76.2992 N.am      5 UNK        -0.4615 
     50 C         -78.4975   26.6161  -76.2957 C.2       4 UNK         0.5053 
     51 O         -77.4039   26.0608  -76.1548 O.2       4 UNK        -0.5105 
     52 CA        -79.7959   25.8096  -76.4624 C.3       4 UNK         0.0263 
     53 CB        -80.5377   26.1489  -77.7755 C.3       4 UNK        -0.1981 
     54 N         -79.6297   24.3645  -76.2798 N.am      4 UNK        -0.4224 
     55 C         -79.1594   23.4502  -77.1431 C.2       3 UNK         0.4895 
     56 O         -78.7462   23.7183  -78.2716 O.2       3 UNK        -0.5091 
     57 CA        -79.1720   21.9700  -76.6965 C.3       3 UNK         0.0250 
     58 CB        -77.7678   21.3472  -76.7633 C.3       3 UNK        -0.1996 
     59 N         -79.7274   21.7624  -75.3545 N.am      3 UNK        -0.4254 
     60 C         -81.0374   21.7402  -75.0636 C.2       2 UNK         0.5004 
     61 O         -81.9263   21.7813  -75.9143 O.2       2 UNK        -0.5226 
     62 CA        -81.4280   21.7106  -73.5724 C.3       2 UNK         0.0269 
     63 CB        -81.7488   20.2744  -73.1285 C.3       2 UNK        -0.1926 
     64 N         -80.4039   22.2731  -72.6837 N.am      2 UNK        -0.4687 
     65 C         -79.9800   23.5455  -72.7057 C.2       1 UNK         0.5165 
     66 O         -80.4648   24.4011  -73.4470 O.2       1 UNK        -0.5079 
     67 H67       -75.2559   21.9732  -74.1892 H         1 UNK         0.0900 
     68 H68       -74.9426   23.3890  -73.1871 H         1 UNK         0.0900 
     69 H69       -75.7806   23.5672  -74.7378 H         1 UNK         0.0900 
     70 H70       -76.9980   24.6764  -72.5657 H         1 UNK         0.2959 
     71 H71       -78.7393   23.1243  -71.0212 H         1 UNK         0.1079 
     72 H72       -79.9331   25.3813  -70.6841 H         1 UNK         0.0837 
     73 H73       -78.2659   25.2648  -70.2091 H         1 UNK         0.0837 
     74 H74       -77.6720   27.7409  -70.0905 H         1 UNK         0.0685 
     75 H75       -79.3825   28.0521  -70.3010 H         1 UNK         0.0685 
     76 H76       -79.8068   29.3281  -72.7693 H         1 UNK         0.1434 
     77 H77       -77.4542   32.9117  -72.8844 H         1 UNK         0.1329 
     78 H78       -76.4262   29.7621  -70.1663 H         1 UNK         0.1335 
     79 H79       -76.0541   33.3366  -70.8647 H         1 UNK         0.0680 
     80 H80       -75.4760   32.0211  -69.8814 H         1 UNK         0.0680 
     81 H81       -73.9288   30.0219  -71.0212 H         1 UNK         0.1032 
     82 H82       -73.0744   31.2299  -70.0904 H         1 UNK         0.1032 
     83 H83       -71.4044   31.4697  -71.9659 H         1 UNK         0.0461 
     84 H84       -71.1680   28.0062  -72.2654 H         1 UNK         0.3453 
     85 H85       -70.2256   27.7910  -70.8096 H         1 UNK         0.3453 
     86 H86       -73.1844   29.6878  -73.3675 H         1 UNK         0.2984 
     87 H87       -72.3465   30.0051  -76.0897 H         1 UNK         0.0554 
     88 H88       -69.9934   29.4615  -76.6277 H         1 UNK         0.0847 
     89 H89       -71.0472   28.1933  -77.2308 H         1 UNK         0.0847 
     90 H90       -70.1088   27.9362  -75.7605 H         1 UNK         0.0847 
     91 H91       -73.7411   28.3382  -75.7202 H         1 UNK         0.3141 
     92 H92       -73.5982   25.2586  -73.8957 H         1 UNK         0.0743 
     93 H93       -74.7357   26.9410  -72.4833 H         1 UNK         0.0784 
     94 H94       -75.4221   27.7288  -73.8959 H         1 UNK         0.0784 
     95 H95       -75.9222   26.0996  -73.4692 H         1 UNK         0.0784 
     96 H96       -75.3895   26.1552  -75.9227 H         1 UNK         0.3213 
     97 H97       -73.6693   24.7504  -78.7150 H         1 UNK         0.0855 
     98 H98       -76.1872   23.8703  -77.2155 H         1 UNK         0.0814 
     99 H99       -74.8524   22.8264  -77.6820 H         1 UNK         0.0814 
    100 H100      -75.8567   23.5690  -78.9190 H         1 UNK         0.0814 
    101 H101      -76.1723   26.1786  -78.1256 H         1 UNK         0.3105 
    102 H102      -74.8991   29.3410  -79.0914 H         1 UNK         0.0547 
    103 H103      -75.3558   28.3108  -81.3218 H         1 UNK         0.0837 
    104 H104      -76.7959   27.5307  -80.6839 H         1 UNK         0.0837 
    105 H105      -76.7095   29.2901  -80.7858 H         1 UNK         0.0837 
    106 H106      -77.5450   28.4689  -78.4985 H         1 UNK         0.3020 
    107 H107      -77.3946   28.8614  -74.9677 H         1 UNK         0.1245 
    108 H108      -78.4113   30.6676  -77.2260 H         1 UNK         0.0781 
    109 H109      -77.6197   31.1592  -75.7537 H         1 UNK         0.0781 
    110 H110      -80.5803   32.0188  -73.5783 H         1 UNK         0.0836 
    111 H111      -79.2157   32.6741  -74.4485 H         1 UNK         0.0836 
    112 H112      -79.6191   28.2898  -76.4067 H         1 UNK         0.3022 
    113 H113      -80.4428   26.1146  -75.6382 H         1 UNK         0.0747 
    114 H114      -81.4180   25.5196  -77.9072 H         1 UNK         0.0793 
    115 H115      -79.8993   26.0188  -78.6499 H         1 UNK         0.0793 
    116 H116      -80.8839   27.1827  -77.7826 H         1 UNK         0.0793 
    117 H117      -79.9041   24.0441  -75.3574 H         1 UNK         0.3047 
    118 H118      -79.8006   21.4366  -77.4127 H         1 UNK         0.0822 
    119 H119      -77.7887   20.2913  -76.4932 H         1 UNK         0.0807 
    120 H120      -77.0710   21.8490  -76.0948 H         1 UNK         0.0807 
    121 H121      -77.3578   21.4131  -77.7719 H         1 UNK         0.0807 
    122 H122      -79.0619   21.7025  -74.5887 H         1 UNK         0.2946 
    123 H123      -82.3313   22.3157  -73.4653 H         1 UNK         0.1144 
    124 H124      -82.5266   19.8363  -73.7558 H         1 UNK         0.0793 
    125 H125      -82.1113   20.2476  -72.1007 H         1 UNK         0.0793 
    126 H126      -80.8735   19.6268  -73.1944 H         1 UNK         0.0793 
    127 H127      -79.9085   21.6139  -72.0990 H         1 UNK         0.2896 
@<TRIPOS>BOND
     1    1    2 1    
     2    1   67 1    
     3    1   68 1    
     4    1   69 1    
     5    2    3 2    
     6    2    4 am   BACKBONE|DICT|INTERRES
     7    4    5 1    
     8    4   70 1    
     9    5    6 1    
    10    5   65 1    
    11    5   71 1    
    12    6    7 1    
    13    6   72 1    
    14    6   73 1    
    15    7    8 1    
    16    8    9 1    
    17    8   74 1    
    18    8   75 1    
    19    9   10 ar   
    20    9   14 ar   
    21   10   11 ar   
    22   10   76 1    
    23   11   12 ar   
    24   11   48 1    
    25   12   13 ar   
    26   12   77 1    
    27   13   14 ar   
    28   13   15 1    
    29   14   78 1    
    30   15   16 1    
    31   15   79 1    
    32   15   80 1    
    33   16   17 1    
    34   17   18 1    
    35   17   81 1    
    36   17   82 1    
    37   18   19 1    
    38   18   22 1    
    39   18   83 1    
    40   19   20 am   BACKBONE|DICT|INTERRES
    41   19   21 2    
    42   20   84 1    
    43   20   85 1    
    44   22   23 am   BACKBONE|DICT|INTERRES
    45   22   86 1    
    46   23   24 2    
    47   23   25 1    
    48   25   26 1    
    49   25   27 1    
    50   25   87 1    
    51   26   88 1    
    52   26   89 1    
    53   26   90 1    
    54   27   28 am   BACKBONE|DICT|INTERRES
    55   27   91 1    
    56   28   29 2    
    57   28   30 1    
    58   30   31 1    
    59   30   32 1    
    60   30   92 1    
    61   31   93 1    
    62   31   94 1    
    63   31   95 1    
    64   32   33 am   BACKBONE|DICT|INTERRES
    65   32   96 1    
    66   33   34 2    
    67   33   35 1    
    68   35   36 1    
    69   35   37 1    
    70   35   97 1    
    71   36   98 1    
    72   36   99 1    
    73   36  100 1    
    74   37   38 am   BACKBONE|DICT|INTERRES
    75   37  101 1    
    76   38   39 2    
    77   38   40 1    
    78   40   41 1    
    79   40   42 1    
    80   40  102 1    
    81   41  103 1    
    82   41  104 1    
    83   41  105 1    
    84   42   43 am   BACKBONE|DICT|INTERRES
    85   42  106 1    
    86   43   44 2    
    87   43   45 1    
    88   45   46 1    
    89   45   49 1    
    90   45  107 1    
    91   46   47 1    
    92   46  108 1    
    93   46  109 1    
    94   47   48 1    
    95   48  110 1    
    96   48  111 1    
    97   49   50 am   BACKBONE|DICT|INTERRES
    98   49  112 1    
    99   50   51 2    
   100   50   52 1    
   101   52   53 1    
   102   52   54 1    
   103   52  113 1    
   104   53  114 1    
   105   53  115 1    
   106   53  116 1    
   107   54   55 am   BACKBONE|DICT|INTERRES
   108   54  117 1    
   109   55   56 2    
   110   55   57 1    
   111   57   58 1    
   112   57   59 1    
   113   57  118 1    
   114   58  119 1    
   115   58  120 1    
   116   58  121 1    
   117   59   60 am   BACKBONE|DICT|INTERRES
   118   59  122 1    
   119   60   61 2    
   120   60   62 1    
   121   62   63 1    
   122   62   64 1    
   123   62  123 1    
   124   63  124 1    
   125   63  125 1    
   126   63  126 1    
   127   64   65 am   BACKBONE|DICT|INTERRES
   128   64  127 1    
   129   65   66 2    
@<TRIPOS>SUBSTRUCTURE
     1 UNK         1 GROUP             0       ****    0 ROOT    
