@<TRIPOS>MOLECULE
3R135
127   129    1
SMALL
USER_CHARGES


@<TRIPOS>ATOM
      1 CA        -85.8844   28.1529  -72.9305 C.3       0 UNK        -0.1998 
      2 C         -84.6662   28.4254  -73.8002 C.2       0 UNK         0.4909 
      3 O         -84.8146   28.6933  -74.9925 O.2       0 UNK        -0.5240 
      4 N         -83.4676   28.3692  -73.2069 N.am      1 UNK        -0.4739 
      5 CA        -82.1724   28.5353  -73.8741 C.3       1 UNK         0.0864 
      6 C6        -81.0303   28.8473  -72.8682 C.3       11 UNK        -0.0881 
      7 S7        -81.0215   27.7845  -71.3765 S.3       11 UNK        -0.2682 
      8 C8        -80.1123   28.8335  -70.2007 C.3       11 UNK         0.0289 
      9 C9        -78.6564   28.9847  -70.6113 C.ar      11 UNK        -0.0687 
     10 C10       -77.7803   27.9082  -70.4670 C.ar      11 UNK        -0.0823 
     11 C11       -76.4463   28.0135  -70.8750 C.ar      11 UNK        -0.0830 
     12 C12       -75.9878   29.2309  -71.3898 C.ar      11 UNK        -0.1021 
     13 C13       -76.8484   30.3310  -71.5215 C.ar      11 UNK        -0.0753 
     14 C14       -78.1853   30.1902  -71.1365 C.ar      11 UNK        -0.0933 
     15 C15       -76.3929   31.7004  -72.0346 C.3       11 UNK         0.0166 
     16 S16       -74.6933   31.7962  -72.6947 S.3       11 UNK        -0.2615 
     17 C17       -74.9259   31.1038  -74.3699 C.3       11 UNK        -0.0865 
     18 CA        -73.6006   30.7200  -75.0830 C.3       10 UNK         0.0862 
     19 C         -72.7497   31.9697  -75.4559 C.2       10 UNK         0.5551 
     20 N         -73.1181   32.6689  -76.5213 N.am      10 UNK        -0.7319 
     21 O         -71.7878   32.3297  -74.7788 O.2       10 UNK        -0.5018 
     22 N         -72.8720   29.6951  -74.3228 N.am      10 UNK        -0.4509 
     23 C         -71.7828   29.0366  -74.7376 C.2       10 UNK         0.4899 
     24 O         -71.2589   29.1899  -75.8414 O.2       10 UNK        -0.4839 
     25 CA        -71.1686   28.0217  -73.7644 C.3       9 UNK         0.0222 
     26 CB        -71.6212   28.1886  -72.2985 C.3       9 UNK        -0.1966 
     27 N         -71.5256   26.6866  -74.2311 N.am      9 UNK        -0.4218 
     28 C         -70.6691   25.6865  -74.4642 C.2       9 UNK         0.5020 
     29 O         -69.4540   25.7566  -74.2708 O.2       9 UNK        -0.5274 
     30 CA        -71.2690   24.3743  -74.9974 C.3       8 UNK         0.0270 
     31 CB        -71.8498   23.5417  -73.8427 C.3       8 UNK        -0.1976 
     32 N         -72.2943   24.5769  -76.0263 N.am      8 UNK        -0.4313 
     33 C         -72.0541   25.0586  -77.2553 C.2       8 UNK         0.5041 
     34 O         -70.9344   25.3721  -77.6618 O.2       8 UNK        -0.5577 
     35 CA        -73.2591   25.2024  -78.2001 C.3       7 UNK         0.0284 
     36 CB        -73.6230   23.8478  -78.8297 C.3       7 UNK        -0.1958 
     37 N         -74.4292   25.7674  -77.5272 N.am      7 UNK        -0.4454 
     38 C         -74.5550   27.0561  -77.1823 C.2       7 UNK         0.5089 
     39 O         -73.7482   27.9280  -77.4990 O.2       7 UNK        -0.5125 
     40 CA        -75.7773   27.4438  -76.3282 C.3       6 UNK         0.0408 
     41 CB        -76.9622   27.8457  -77.2183 C.3       6 UNK        -0.1791 
     42 N         -76.1958   26.3923  -75.3985 N.am      6 UNK        -0.4762 
     43 C         -75.4439   25.9265  -74.3898 C.2       6 UNK         0.5007 
     44 O         -74.3274   26.3631  -74.1103 O.2       6 UNK        -0.5032 
     45 CA        -76.0109   24.7296  -73.6047 C.3       5 UNK         0.0783 
     46 C46       -76.9932   25.1814  -72.4928 C.3       11 UNK        -0.0857 
     47 S47       -76.2176   25.1809  -70.8415 S.3       11 UNK        -0.2512 
     48 C48       -75.4683   26.8455  -70.7494 C.3       11 UNK         0.0225 
     49 N         -76.6106   23.7474  -74.5111 N.am      5 UNK        -0.4615 
     50 C         -75.9090   22.9689  -75.3456 C.2       4 UNK         0.5053 
     51 O         -74.6814   22.9864  -75.4253 O.2       4 UNK        -0.5105 
     52 CA        -76.7152   22.0505  -76.2782 C.3       4 UNK         0.0263 
     53 CB        -77.1249   20.7616  -75.5485 C.3       4 UNK        -0.1981 
     54 N         -77.9046   22.7088  -76.8241 N.am      4 UNK        -0.4224 
     55 C         -77.8675   23.7638  -77.6505 C.2       3 UNK         0.4895 
     56 O         -76.8274   24.2607  -78.0778 O.2       3 UNK        -0.5091 
     57 CA        -79.2119   24.3991  -78.0366 C.3       3 UNK         0.0250 
     58 CB        -79.7904   23.7144  -79.2851 C.3       3 UNK        -0.1996 
     59 N         -80.2103   24.3881  -76.9628 N.am      3 UNK        -0.4254 
     60 C         -80.0692   24.9811  -75.7686 C.2       2 UNK         0.5004 
     61 O         -79.0341   25.5341  -75.3860 O.2       2 UNK        -0.5226 
     62 CA        -81.2837   24.9008  -74.8276 C.3       2 UNK         0.0269 
     63 CB        -81.0530   23.8257  -73.7533 C.3       2 UNK        -0.1926 
     64 N         -81.5823   26.1753  -74.1704 N.am      2 UNK        -0.4687 
     65 C         -81.8602   27.3323  -74.7880 C.2       1 UNK         0.5165 
     66 O         -81.9151   27.4637  -76.0122 O.2       1 UNK        -0.5079 
     67 H67       -86.5480   29.0172  -72.9325 H         1 UNK         0.0900 
     68 H68       -85.6089   27.9396  -71.8977 H         1 UNK         0.0900 
     69 H69       -86.4374   27.2973  -73.3172 H         1 UNK         0.0900 
     70 H70       -83.4088   28.1383  -72.2245 H         1 UNK         0.2959 
     71 H71       -82.2565   29.4010  -74.5356 H         1 UNK         0.1079 
     72 H72       -80.0526   28.7894  -73.3519 H         1 UNK         0.0837 
     73 H73       -81.1317   29.8832  -72.5408 H         1 UNK         0.0837 
     74 H74       -80.6023   29.8050  -70.1190 H         1 UNK         0.0685 
     75 H75       -80.1630   28.3804  -69.2095 H         1 UNK         0.0685 
     76 H76       -78.1538   26.9825  -70.0523 H         1 UNK         0.1434 
     77 H77       -74.9498   29.3129  -71.6745 H         1 UNK         0.1329 
     78 H78       -78.8615   31.0284  -71.2376 H         1 UNK         0.1335 
     79 H79       -77.0862   32.0513  -72.8007 H         1 UNK         0.0680 
     80 H80       -76.4662   32.4093  -71.2087 H         1 UNK         0.0680 
     81 H81       -75.4898   31.8207  -74.9696 H         1 UNK         0.1032 
     82 H82       -75.5650   30.2231  -74.2921 H         1 UNK         0.1032 
     83 H83       -73.8728   30.2460  -76.0276 H         1 UNK         0.0461 
     84 H84       -73.9044   32.3876  -77.0858 H         1 UNK         0.3453 
     85 H85       -72.5896   33.4892  -76.7742 H         1 UNK         0.3453 
     86 H86       -73.2026   29.5342  -73.3845 H         1 UNK         0.2984 
     87 H87       -70.0872   28.1677  -73.8038 H         1 UNK         0.0554 
     88 H88       -71.0809   27.5020  -71.6465 H         1 UNK         0.0847 
     89 H89       -72.6846   27.9880  -72.1708 H         1 UNK         0.0847 
     90 H90       -71.4213   29.1975  -71.9347 H         1 UNK         0.0847 
     91 H91       -72.5189   26.5312  -74.4002 H         1 UNK         0.3141 
     92 H92       -70.4568   23.8011  -75.4495 H         1 UNK         0.0743 
     93 H93       -72.1994   22.5696  -74.1912 H         1 UNK         0.0784 
     94 H94       -71.0963   23.3586  -73.0756 H         1 UNK         0.0784 
     95 H95       -72.6882   24.0471  -73.3626 H         1 UNK         0.0784 
     96 H96       -73.2349   24.2667  -75.7984 H         1 UNK         0.3213 
     97 H97       -72.9694   25.8795  -79.0069 H         1 UNK         0.0855 
     98 H98       -73.9494   23.1257  -78.0809 H         1 UNK         0.0814 
     99 H99       -72.7662   23.4160  -79.3486 H         1 UNK         0.0814 
    100 H100      -74.4246   23.9546  -79.5608 H         1 UNK         0.0814 
    101 H101      -75.2016   25.1366  -77.3364 H         1 UNK         0.3105 
    102 H102      -75.4953   28.3103  -75.7288 H         1 UNK         0.0547 
    103 H103      -76.6986   28.6882  -77.8588 H         1 UNK         0.0837 
    104 H104      -77.2706   27.0276  -77.8686 H         1 UNK         0.0837 
    105 H105      -77.8251   28.1457  -76.6232 H         1 UNK         0.0837 
    106 H106      -77.1250   26.0001  -75.5311 H         1 UNK         0.3020 
    107 H107      -75.1575   24.2321  -73.1380 H         1 UNK         0.1245 
    108 H108      -77.8315   24.4868  -72.4244 H         1 UNK         0.0781 
    109 H109      -77.4525   26.1492  -72.7051 H         1 UNK         0.0781 
    110 H110      -74.7033   26.9142  -71.5222 H         1 UNK         0.0836 
    111 H111      -74.9473   26.9359  -69.7956 H         1 UNK         0.0836 
    112 H112      -77.6189   23.7329  -74.5592 H         1 UNK         0.3022 
    113 H113      -76.0678   21.7786  -77.1148 H         1 UNK         0.0747 
    114 H114      -77.6254   20.0663  -76.2227 H         1 UNK         0.0793 
    115 H115      -76.2505   20.2474  -75.1469 H         1 UNK         0.0793 
    116 H116      -77.7969   20.9626  -74.7131 H         1 UNK         0.0793 
    117 H117      -78.8044   22.3587  -76.5296 H         1 UNK         0.3047 
    118 H118      -79.0176   25.4442  -78.2846 H         1 UNK         0.0822 
    119 H119      -80.6888   24.2222  -79.6367 H         1 UNK         0.0807 
    120 H120      -80.0457   22.6712  -79.0945 H         1 UNK         0.0807 
    121 H121      -79.0716   23.7291  -80.1060 H         1 UNK         0.0807 
    122 H122      -81.0917   23.9458  -77.1815 H         1 UNK         0.2946 
    123 H123      -82.1641   24.6260  -75.4125 H         1 UNK         0.1144 
    124 H124      -81.9336   23.6996  -73.1231 H         1 UNK         0.0793 
    125 H125      -80.2123   24.0779  -73.1060 H         1 UNK         0.0793 
    126 H126      -80.8393   22.8561  -74.2052 H         1 UNK         0.0793 
    127 H127      -81.5283   26.1903  -73.1608 H         1 UNK         0.2896 
@<TRIPOS>BOND
     1    1    2 1    
     2    1   67 1    
     3    1   68 1    
     4    1   69 1    
     5    2    3 2    
     6    2    4 am   BACKBONE|DICT|INTERRES
     7    4    5 1    
     8    4   70 1    
     9    5    6 1    
    10    5   65 1    
    11    5   71 1    
    12    6    7 1    
    13    6   72 1    
    14    6   73 1    
    15    7    8 1    
    16    8    9 1    
    17    8   74 1    
    18    8   75 1    
    19    9   10 ar   
    20    9   14 ar   
    21   10   11 ar   
    22   10   76 1    
    23   11   12 ar   
    24   11   48 1    
    25   12   13 ar   
    26   12   77 1    
    27   13   14 ar   
    28   13   15 1    
    29   14   78 1    
    30   15   16 1    
    31   15   79 1    
    32   15   80 1    
    33   16   17 1    
    34   17   18 1    
    35   17   81 1    
    36   17   82 1    
    37   18   19 1    
    38   18   22 1    
    39   18   83 1    
    40   19   20 am   BACKBONE|DICT|INTERRES
    41   19   21 2    
    42   20   84 1    
    43   20   85 1    
    44   22   23 am   BACKBONE|DICT|INTERRES
    45   22   86 1    
    46   23   24 2    
    47   23   25 1    
    48   25   26 1    
    49   25   27 1    
    50   25   87 1    
    51   26   88 1    
    52   26   89 1    
    53   26   90 1    
    54   27   28 am   BACKBONE|DICT|INTERRES
    55   27   91 1    
    56   28   29 2    
    57   28   30 1    
    58   30   31 1    
    59   30   32 1    
    60   30   92 1    
    61   31   93 1    
    62   31   94 1    
    63   31   95 1    
    64   32   33 am   BACKBONE|DICT|INTERRES
    65   32   96 1    
    66   33   34 2    
    67   33   35 1    
    68   35   36 1    
    69   35   37 1    
    70   35   97 1    
    71   36   98 1    
    72   36   99 1    
    73   36  100 1    
    74   37   38 am   BACKBONE|DICT|INTERRES
    75   37  101 1    
    76   38   39 2    
    77   38   40 1    
    78   40   41 1    
    79   40   42 1    
    80   40  102 1    
    81   41  103 1    
    82   41  104 1    
    83   41  105 1    
    84   42   43 am   BACKBONE|DICT|INTERRES
    85   42  106 1    
    86   43   44 2    
    87   43   45 1    
    88   45   46 1    
    89   45   49 1    
    90   45  107 1    
    91   46   47 1    
    92   46  108 1    
    93   46  109 1    
    94   47   48 1    
    95   48  110 1    
    96   48  111 1    
    97   49   50 am   BACKBONE|DICT|INTERRES
    98   49  112 1    
    99   50   51 2    
   100   50   52 1    
   101   52   53 1    
   102   52   54 1    
   103   52  113 1    
   104   53  114 1    
   105   53  115 1    
   106   53  116 1    
   107   54   55 am   BACKBONE|DICT|INTERRES
   108   54  117 1    
   109   55   56 2    
   110   55   57 1    
   111   57   58 1    
   112   57   59 1    
   113   57  118 1    
   114   58  119 1    
   115   58  120 1    
   116   58  121 1    
   117   59   60 am   BACKBONE|DICT|INTERRES
   118   59  122 1    
   119   60   61 2    
   120   60   62 1    
   121   62   63 1    
   122   62   64 1    
   123   62  123 1    
   124   63  124 1    
   125   63  125 1    
   126   63  126 1    
   127   64   65 am   BACKBONE|DICT|INTERRES
   128   64  127 1    
   129   65   66 2    
@<TRIPOS>SUBSTRUCTURE
     1 UNK         1 GROUP             0       ****    0 ROOT    
