@<TRIPOS>MOLECULE
3R135
127   129    1
SMALL
USER_CHARGES


@<TRIPOS>ATOM
      1 CA        -84.8418   26.0925  -71.9434 C.3       0 UNK        -0.1998 
      2 C         -83.6096   26.5998  -72.6770 C.2       0 UNK         0.4909 
      3 O         -83.7286   27.4490  -73.5604 O.2       0 UNK        -0.5240 
      4 N         -82.4260   26.0816  -72.3230 N.am      1 UNK        -0.4739 
      5 CA        -81.1328   26.4705  -72.9059 C.3       1 UNK         0.0864 
      6 C6        -79.9542   26.1974  -71.9381 C.3       11 UNK        -0.0881 
      7 S7        -80.1311   27.1053  -70.3640 S.3       11 UNK        -0.2682 
      8 C8        -78.4336   27.7240  -70.0804 C.3       11 UNK         0.0289 
      9 C9        -77.9482   28.8562  -70.9921 C.ar      11 UNK        -0.0687 
     10 C10       -78.7615   29.4807  -71.9485 C.ar      11 UNK        -0.0823 
     11 C11       -78.2595   30.5064  -72.7570 C.ar      11 UNK        -0.0830 
     12 C12       -76.9451   30.9415  -72.5793 C.ar      11 UNK        -0.1021 
     13 C13       -76.1234   30.3357  -71.6275 C.ar      11 UNK        -0.0753 
     14 C14       -76.6268   29.2915  -70.8463 C.ar      11 UNK        -0.0933 
     15 C15       -74.6899   30.8044  -71.4507 C.3       11 UNK         0.0166 
     16 S16       -73.6519   30.2219  -72.8228 S.3       11 UNK        -0.2615 
     17 C17       -71.9869   30.3211  -72.0731 C.3       11 UNK        -0.0865 
     18 CA        -71.4468   28.9427  -71.6032 C.3       10 UNK         0.0862 
     19 C         -72.0466   28.5072  -70.2333 C.2       10 UNK         0.5551 
     20 N         -72.7359   27.3768  -70.1349 N.am      10 UNK        -0.7319 
     21 O         -71.8730   29.2078  -69.2393 O.2       10 UNK        -0.5018 
     22 N         -71.5648   27.9503  -72.6792 N.am      10 UNK        -0.4509 
     23 C         -70.8422   26.8349  -72.8186 C.2       10 UNK         0.4899 
     24 O         -69.9434   26.4956  -72.0492 O.2       10 UNK        -0.4839 
     25 CA        -71.1879   25.9404  -74.0224 C.3       9 UNK         0.0222 
     26 CB        -72.0002   24.7176  -73.5664 C.3       9 UNK        -0.1966 
     27 N         -71.9325   26.6449  -75.0719 N.am      9 UNK        -0.4218 
     28 C         -71.4014   27.5227  -75.9355 C.2       9 UNK         0.5020 
     29 O         -70.2158   27.8603  -75.9306 O.2       9 UNK        -0.5274 
     30 CA        -72.3728   28.0908  -76.9887 C.3       8 UNK         0.0270 
     31 CB        -71.6784   28.9450  -78.0706 C.3       8 UNK        -0.1976 
     32 N         -73.1901   27.0300  -77.5898 N.am      8 UNK        -0.4313 
     33 C         -72.7630   25.9599  -78.2792 C.2       8 UNK         0.5041 
     34 O         -71.5938   25.7751  -78.6199 O.2       8 UNK        -0.5577 
     35 CA        -73.8097   24.8844  -78.6194 C.3       7 UNK         0.0284 
     36 CB        -73.6735   23.6956  -77.6529 C.3       7 UNK        -0.1958 
     37 N         -75.1886   25.3761  -78.5764 N.am      7 UNK        -0.4454 
     38 C         -75.7380   26.1845  -79.4929 C.2       7 UNK         0.5089 
     39 O         -75.1526   26.5789  -80.5017 O.2       7 UNK        -0.5125 
     40 CA        -77.1785   26.6461  -79.2243 C.3       6 UNK         0.0408 
     41 CB        -78.1810   25.5604  -79.6434 C.3       6 UNK        -0.1791 
     42 N         -77.3976   27.0019  -77.8207 N.am      6 UNK        -0.4762 
     43 C         -76.8955   28.0927  -77.2210 C.2       6 UNK         0.5007 
     44 O         -76.1831   28.9203  -77.7892 O.2       6 UNK        -0.5032 
     45 CA        -77.2246   28.2633  -75.7255 C.3       5 UNK         0.0783 
     46 C46       -78.6199   28.9147  -75.5254 C.3       11 UNK        -0.0857 
     47 S47       -78.5486   30.7377  -75.5166 S.3       11 UNK        -0.2512 
     48 C48       -79.1319   31.1382  -73.8336 C.3       11 UNK         0.0225 
     49 N         -77.1023   26.9859  -75.0155 N.am      5 UNK        -0.4615 
     50 C         -75.9308   26.3939  -74.7439 C.2       4 UNK         0.5053 
     51 O         -74.8349   26.8605  -75.0586 O.2       4 UNK        -0.5105 
     52 CA        -75.9627   25.0453  -74.0097 C.3       4 UNK         0.0263 
     53 CB        -75.9288   25.2656  -72.4888 C.3       4 UNK        -0.1981 
     54 N         -77.0745   24.1551  -74.3594 N.am      4 UNK        -0.4224 
     55 C         -77.3127   23.6648  -75.5855 C.2       3 UNK         0.4895 
     56 O         -76.7400   24.0519  -76.6036 O.2       3 UNK        -0.5091 
     57 CA        -78.3555   22.5406  -75.6854 C.3       3 UNK         0.0250 
     58 CB        -78.1001   21.4139  -74.6666 C.3       3 UNK        -0.1996 
     59 N         -79.7006   23.0771  -75.5027 N.am      3 UNK        -0.4254 
     60 C         -80.4435   23.6038  -76.4844 C.2       2 UNK         0.5004 
     61 O         -80.1372   23.5687  -77.6759 O.2       2 UNK        -0.5226 
     62 CA        -81.7494   24.3052  -76.0698 C.3       2 UNK         0.0269 
     63 CB        -82.9383   23.3368  -76.1805 C.3       2 UNK        -0.1926 
     64 N         -81.7412   24.9057  -74.7285 N.am      2 UNK        -0.4687 
     65 C         -80.8708   25.8266  -74.2850 C.2       1 UNK         0.5165 
     66 O         -79.8723   26.1690  -74.9174 O.2       1 UNK        -0.5079 
     67 H67       -85.5402   25.6426  -72.6485 H         1 UNK         0.0900 
     68 H68       -85.3467   26.9188  -71.4436 H         1 UNK         0.0900 
     69 H69       -84.5898   25.3451  -71.1912 H         1 UNK         0.0900 
     70 H70       -82.3826   25.4013  -71.5770 H         1 UNK         0.2959 
     71 H71       -81.1630   27.5458  -73.0932 H         1 UNK         0.1079 
     72 H72       -79.8672   25.1318  -71.7185 H         1 UNK         0.0837 
     73 H73       -79.0128   26.4940  -72.4029 H         1 UNK         0.0837 
     74 H74       -78.3806   28.0764  -69.0494 H         1 UNK         0.0685 
     75 H75       -77.7422   26.8831  -70.1493 H         1 UNK         0.0685 
     76 H76       -79.7870   29.1720  -72.0790 H         1 UNK         0.1434 
     77 H77       -76.5529   31.7365  -73.1992 H         1 UNK         0.1329 
     78 H78       -75.9864   28.8179  -70.1142 H         1 UNK         0.1335 
     79 H79       -74.6553   31.8940  -71.4069 H         1 UNK         0.0680 
     80 H80       -74.2914   30.4432  -70.5018 H         1 UNK         0.0680 
     81 H81       -71.3146   30.7245  -72.8318 H         1 UNK         0.1032 
     82 H82       -71.9745   31.0538  -71.2636 H         1 UNK         0.1032 
     83 H83       -70.3800   29.0734  -71.4122 H         1 UNK         0.0461 
     84 H84       -72.8712   26.7943  -70.9437 H         1 UNK         0.3453 
     85 H85       -73.1099   27.1018  -69.2409 H         1 UNK         0.3453 
     86 H86       -72.2978   28.1348  -73.3490 H         1 UNK         0.2984 
     87 H87       -70.2480   25.5852  -74.4501 H         1 UNK         0.0554 
     88 H88       -71.4447   24.1332  -72.8316 H         1 UNK         0.0847 
     89 H89       -72.2254   24.0544  -74.4019 H         1 UNK         0.0847 
     90 H90       -72.9423   25.0093  -73.1030 H         1 UNK         0.0847 
     91 H91       -72.9369   26.4909  -75.1172 H         1 UNK         0.3141 
     92 H92       -73.0642   28.7406  -76.4494 H         1 UNK         0.0743 
     93 H93       -71.1694   29.7997  -77.6234 H         1 UNK         0.0784 
     94 H94       -70.9305   28.3747  -78.6223 H         1 UNK         0.0784 
     95 H95       -72.3997   29.3358  -78.7883 H         1 UNK         0.0784 
     96 H96       -74.1701   27.0535  -77.3392 H         1 UNK         0.3213 
     97 H97       -73.6022   24.5311  -79.6319 H         1 UNK         0.0855 
     98 H98       -72.6664   23.2777  -77.6847 H         1 UNK         0.0814 
     99 H99       -74.3656   22.8935  -77.9100 H         1 UNK         0.0814 
    100 H100      -73.8720   23.9908  -76.6218 H         1 UNK         0.0814 
    101 H101      -75.7702   25.0409  -77.8090 H         1 UNK         0.3105 
    102 H102      -77.3667   27.5336  -79.8323 H         1 UNK         0.0547 
    103 H103      -78.0673   25.3113  -80.6992 H         1 UNK         0.0837 
    104 H104      -78.0405   24.6397  -79.0755 H         1 UNK         0.0837 
    105 H105      -79.2101   25.8886  -79.4967 H         1 UNK         0.0837 
    106 H106      -77.9319   26.3495  -77.2626 H         1 UNK         0.3020 
    107 H107      -76.4692   28.9296  -75.2998 H         1 UNK         0.1245 
    108 H108      -79.0478   28.5927  -74.5774 H         1 UNK         0.0781 
    109 H109      -79.3370   28.5885  -76.2815 H         1 UNK         0.0781 
    110 H110      -80.1706   30.8200  -73.7317 H         1 UNK         0.0836 
    111 H111      -79.1311   32.2217  -73.7068 H         1 UNK         0.0836 
    112 H112      -77.9737   26.5187  -74.7836 H         1 UNK         0.3022 
    113 H113      -75.0479   24.5193  -74.2893 H         1 UNK         0.0747 
    114 H114      -75.1148   25.9346  -72.2057 H         1 UNK         0.0793 
    115 H115      -76.8517   25.7139  -72.1248 H         1 UNK         0.0793 
    116 H116      -75.7760   24.3280  -71.9540 H         1 UNK         0.0793 
    117 H117      -77.6092   23.7863  -73.5880 H         1 UNK         0.3047 
    118 H118      -78.2689   22.1046  -76.6834 H         1 UNK         0.0822 
    119 H119      -78.7609   20.5664  -74.8506 H         1 UNK         0.0807 
    120 H120      -78.2586   21.7353  -73.6369 H         1 UNK         0.0807 
    121 H121      -77.0765   21.0438  -74.7419 H         1 UNK         0.0807 
    122 H122      -80.0436   23.1599  -74.5573 H         1 UNK         0.2946 
    123 H123      -81.9042   25.1187  -76.7822 H         1 UNK         0.1144 
    124 H124      -83.8856   23.8488  -76.0102 H         1 UNK         0.0793 
    125 H125      -82.8619   22.5204  -75.4612 H         1 UNK         0.0793 
    126 H126      -82.9885   22.8913  -77.1752 H         1 UNK         0.0793 
    127 H127      -82.5222   24.6816  -74.1291 H         1 UNK         0.2896 
@<TRIPOS>BOND
     1    1    2 1    
     2    1   67 1    
     3    1   68 1    
     4    1   69 1    
     5    2    3 2    
     6    2    4 am   BACKBONE|DICT|INTERRES
     7    4    5 1    
     8    4   70 1    
     9    5    6 1    
    10    5   65 1    
    11    5   71 1    
    12    6    7 1    
    13    6   72 1    
    14    6   73 1    
    15    7    8 1    
    16    8    9 1    
    17    8   74 1    
    18    8   75 1    
    19    9   10 ar   
    20    9   14 ar   
    21   10   11 ar   
    22   10   76 1    
    23   11   12 ar   
    24   11   48 1    
    25   12   13 ar   
    26   12   77 1    
    27   13   14 ar   
    28   13   15 1    
    29   14   78 1    
    30   15   16 1    
    31   15   79 1    
    32   15   80 1    
    33   16   17 1    
    34   17   18 1    
    35   17   81 1    
    36   17   82 1    
    37   18   19 1    
    38   18   22 1    
    39   18   83 1    
    40   19   20 am   BACKBONE|DICT|INTERRES
    41   19   21 2    
    42   20   84 1    
    43   20   85 1    
    44   22   23 am   BACKBONE|DICT|INTERRES
    45   22   86 1    
    46   23   24 2    
    47   23   25 1    
    48   25   26 1    
    49   25   27 1    
    50   25   87 1    
    51   26   88 1    
    52   26   89 1    
    53   26   90 1    
    54   27   28 am   BACKBONE|DICT|INTERRES
    55   27   91 1    
    56   28   29 2    
    57   28   30 1    
    58   30   31 1    
    59   30   32 1    
    60   30   92 1    
    61   31   93 1    
    62   31   94 1    
    63   31   95 1    
    64   32   33 am   BACKBONE|DICT|INTERRES
    65   32   96 1    
    66   33   34 2    
    67   33   35 1    
    68   35   36 1    
    69   35   37 1    
    70   35   97 1    
    71   36   98 1    
    72   36   99 1    
    73   36  100 1    
    74   37   38 am   BACKBONE|DICT|INTERRES
    75   37  101 1    
    76   38   39 2    
    77   38   40 1    
    78   40   41 1    
    79   40   42 1    
    80   40  102 1    
    81   41  103 1    
    82   41  104 1    
    83   41  105 1    
    84   42   43 am   BACKBONE|DICT|INTERRES
    85   42  106 1    
    86   43   44 2    
    87   43   45 1    
    88   45   46 1    
    89   45   49 1    
    90   45  107 1    
    91   46   47 1    
    92   46  108 1    
    93   46  109 1    
    94   47   48 1    
    95   48  110 1    
    96   48  111 1    
    97   49   50 am   BACKBONE|DICT|INTERRES
    98   49  112 1    
    99   50   51 2    
   100   50   52 1    
   101   52   53 1    
   102   52   54 1    
   103   52  113 1    
   104   53  114 1    
   105   53  115 1    
   106   53  116 1    
   107   54   55 am   BACKBONE|DICT|INTERRES
   108   54  117 1    
   109   55   56 2    
   110   55   57 1    
   111   57   58 1    
   112   57   59 1    
   113   57  118 1    
   114   58  119 1    
   115   58  120 1    
   116   58  121 1    
   117   59   60 am   BACKBONE|DICT|INTERRES
   118   59  122 1    
   119   60   61 2    
   120   60   62 1    
   121   62   63 1    
   122   62   64 1    
   123   62  123 1    
   124   63  124 1    
   125   63  125 1    
   126   63  126 1    
   127   64   65 am   BACKBONE|DICT|INTERRES
   128   64  127 1    
   129   65   66 2    
@<TRIPOS>SUBSTRUCTURE
     1 UNK         1 GROUP             0       ****    0 ROOT    
