@<TRIPOS>MOLECULE
3R135
127   129    1
SMALL
USER_CHARGES


@<TRIPOS>ATOM
      1 CA        -83.8270   25.1922  -69.0033 C.3       0 UNK        -0.1998 
      2 C         -83.2404   25.3007  -70.4034 C.2       0 UNK         0.4909 
      3 O         -82.6038   24.3523  -70.8624 O.2       0 UNK        -0.5240 
      4 N         -83.4613   26.4494  -71.0623 N.am      1 UNK        -0.4739 
      5 CA        -83.0252   26.8281  -72.4163 C.3       1 UNK         0.0864 
      6 C6        -81.6180   27.4970  -72.4674 C.3       11 UNK        -0.0881 
      7 S7        -80.2008   26.4922  -71.8844 S.3       11 UNK        -0.2682 
      8 C8        -79.3052   27.6640  -70.8038 C.3       11 UNK         0.0289 
      9 C9        -78.3146   28.5281  -71.5790 C.ar      11 UNK        -0.0687 
     10 C10       -78.7640   29.3781  -72.5923 C.ar      11 UNK        -0.0823 
     11 C11       -77.8624   30.1183  -73.3572 C.ar      11 UNK        -0.0830 
     12 C12       -76.4994   30.0634  -73.0596 C.ar      11 UNK        -0.1021 
     13 C13       -76.0333   29.2423  -72.0285 C.ar      11 UNK        -0.0753 
     14 C14       -76.9443   28.4709  -71.2965 C.ar      11 UNK        -0.0933 
     15 C15       -74.5403   29.1469  -71.7538 C.3       11 UNK         0.0166 
     16 S16       -73.8250   30.7557  -71.2902 S.3       11 UNK        -0.2615 
     17 C17       -72.0566   30.3249  -71.1567 C.3       11 UNK        -0.0865 
     18 CA        -71.2303   30.7159  -72.4121 C.3       10 UNK         0.0862 
     19 C         -69.7100   30.5092  -72.1383 C.2       10 UNK         0.5551 
     20 N         -69.0459   29.5299  -72.7424 N.am      10 UNK        -0.7319 
     21 O         -69.1241   31.2566  -71.3590 O.2       10 UNK        -0.5018 
     22 N         -71.7253   30.0391  -73.6214 N.am      10 UNK        -0.4509 
     23 C         -71.3792   30.3395  -74.8800 C.2       10 UNK         0.4899 
     24 O         -70.7172   31.3331  -75.1838 O.2       10 UNK        -0.4839 
     25 CA        -71.8411   29.3601  -75.9835 C.3       9 UNK         0.0222 
     26 CB        -70.8417   29.2867  -77.1565 C.3       9 UNK        -0.1966 
     27 N         -72.1620   28.0046  -75.5061 N.am      9 UNK        -0.4218 
     28 C         -71.3513   27.1675  -74.8362 C.2       9 UNK         0.5020 
     29 O         -70.1962   27.4449  -74.5090 O.2       9 UNK        -0.5274 
     30 CA        -71.9356   25.8129  -74.4122 C.3       8 UNK         0.0270 
     31 CB        -72.7393   25.9558  -73.1095 C.3       8 UNK        -0.1976 
     32 N         -72.7700   25.2031  -75.4494 N.am      8 UNK        -0.4313 
     33 C         -72.2744   24.5497  -76.5104 C.2       8 UNK         0.5041 
     34 O         -71.0697   24.4049  -76.7241 O.2       8 UNK        -0.5577 
     35 CA        -73.2849   23.9396  -77.4964 C.3       7 UNK         0.0284 
     36 CB        -73.9120   22.6622  -76.9169 C.3       7 UNK        -0.1958 
     37 N         -74.3362   24.8786  -77.8884 N.am      7 UNK        -0.4454 
     38 C         -74.1290   25.9699  -78.6391 C.2       7 UNK         0.5089 
     39 O         -73.0344   26.2921  -79.1016 O.2       7 UNK        -0.5125 
     40 CA        -75.3515   26.8565  -78.9244 C.3       6 UNK         0.0408 
     41 CB        -76.1065   26.3553  -80.1656 C.3       6 UNK        -0.1791 
     42 N         -76.2745   26.9362  -77.7921 N.am      6 UNK        -0.4762 
     43 C         -75.9964   27.5341  -76.6251 C.2       6 UNK         0.5007 
     44 O         -74.9160   28.0633  -76.3618 O.2       6 UNK        -0.5032 
     45 CA        -77.1041   27.4833  -75.5537 C.3       5 UNK         0.0783 
     46 C46       -78.3137   28.3890  -75.9204 C.3       11 UNK        -0.0857 
     47 S47       -77.8722   30.1570  -76.1311 S.3       11 UNK        -0.2512 
     48 C48       -78.3636   30.9187  -74.5480 C.3       11 UNK         0.0225 
     49 N         -77.5160   26.1020  -75.2811 N.am      5 UNK        -0.4615 
     50 C         -76.6919   25.1198  -74.8756 C.2       4 UNK         0.5053 
     51 O         -75.5015   25.2868  -74.6160 O.2       4 UNK        -0.5105 
     52 CA        -77.2612   23.6906  -74.8030 C.3       4 UNK         0.0263 
     53 CB        -77.8232   23.4163  -73.3993 C.3       4 UNK        -0.1981 
     54 N         -78.2986   23.4192  -75.7977 N.am      4 UNK        -0.4224 
     55 C         -78.2107   23.6256  -77.1206 C.2       3 UNK         0.4895 
     56 O         -77.1610   23.9066  -77.7013 O.2       3 UNK        -0.5091 
     57 CA        -79.5296   23.5837  -77.9211 C.3       3 UNK         0.0250 
     58 CB        -79.5846   22.3204  -78.7946 C.3       3 UNK        -0.1996 
     59 N         -80.7511   23.6596  -77.1017 N.am      3 UNK        -0.4254 
     60 C         -81.0698   24.6461  -76.2482 C.2       2 UNK         0.5004 
     61 O         -80.3732   25.6534  -76.0819 O.2       2 UNK        -0.5226 
     62 CA        -82.3232   24.4342  -75.3830 C.3       2 UNK         0.0269 
     63 CB        -82.4073   22.9993  -74.8127 C.3       2 UNK        -0.1926 
     64 N         -82.2880   25.4041  -74.2917 N.am      2 UNK        -0.4687 
     65 C         -83.3004   25.7478  -73.4901 C.2       1 UNK         0.5165 
     66 O         -84.4366   25.2777  -73.5914 O.2       1 UNK        -0.5079 
     67 H67       -84.3681   26.0930  -68.7142 H         1 UNK         0.0900 
     68 H68       -83.0320   25.0273  -68.2766 H         1 UNK         0.0900 
     69 H69       -84.5173   24.3507  -68.9502 H         1 UNK         0.0900 
     70 H70       -84.0219   27.1519  -70.6008 H         1 UNK         0.2959 
     71 H71       -83.7225   27.6198  -72.6967 H         1 UNK         0.1079 
     72 H72       -81.4008   27.8434  -73.4795 H         1 UNK         0.0837 
     73 H73       -81.6660   28.4049  -71.8654 H         1 UNK         0.0837 
     74 H74       -80.0078   28.2987  -70.2626 H         1 UNK         0.0685 
     75 H75       -78.7804   27.0825  -70.0445 H         1 UNK         0.0685 
     76 H76       -79.8161   29.4348  -72.8220 H         1 UNK         0.1434 
     77 H77       -75.7967   30.6313  -73.6546 H         1 UNK         0.1329 
     78 H78       -76.5850   27.8157  -70.5148 H         1 UNK         0.1335 
     79 H79       -74.0501   28.7824  -72.6555 H         1 UNK         0.0680 
     80 H80       -74.3345   28.4208  -70.9657 H         1 UNK         0.0680 
     81 H81       -71.6712   30.8445  -70.2770 H         1 UNK         0.1032 
     82 H82       -71.9491   29.2602  -70.9402 H         1 UNK         0.1032 
     83 H83       -71.3637   31.7875  -72.5730 H         1 UNK         0.0461 
     84 H84       -68.0632   29.4141  -72.5539 H         1 UNK         0.3453 
     85 H85       -69.5127   28.8948  -73.3830 H         1 UNK         0.3453 
     86 H86       -72.2687   29.2049  -73.4716 H         1 UNK         0.2984 
     87 H87       -72.7738   29.7703  -76.3725 H         1 UNK         0.0554 
     88 H88       -71.1964   28.6113  -77.9355 H         1 UNK         0.0847 
     89 H89       -69.8618   28.9370  -76.8299 H         1 UNK         0.0847 
     90 H90       -70.7016   30.2649  -77.6179 H         1 UNK         0.0847 
     91 H91       -73.1121   27.7061  -75.7145 H         1 UNK         0.3141 
     92 H92       -71.0958   25.1451  -74.2071 H         1 UNK         0.0743 
     93 H93       -72.1380   26.4141  -72.3231 H         1 UNK         0.0784 
     94 H94       -73.6273   26.5716  -73.2481 H         1 UNK         0.0784 
     95 H95       -73.0677   24.9835  -72.7416 H         1 UNK         0.0784 
     96 H96       -73.7790   25.2571  -75.3159 H         1 UNK         0.3213 
     97 H97       -72.7395   23.6620  -78.4013 H         1 UNK         0.0855 
     98 H98       -74.6415   22.2278  -77.6010 H         1 UNK         0.0814 
     99 H99       -74.4110   22.8538  -75.9684 H         1 UNK         0.0814 
    100 H100      -73.1479   21.9061  -76.7321 H         1 UNK         0.0814 
    101 H101      -75.2880   24.6606  -77.6085 H         1 UNK         0.3105 
    102 H102      -74.9884   27.8656  -79.1313 H         1 UNK         0.0547 
    103 H103      -76.5150   25.3551  -80.0152 H         1 UNK         0.0837 
    104 H104      -76.9307   27.0198  -80.4250 H         1 UNK         0.0837 
    105 H105      -75.4445   26.3093  -81.0314 H         1 UNK         0.0837 
    106 H106      -77.1603   26.4615  -77.8932 H         1 UNK         0.3020 
    107 H107      -76.6632   27.8550  -74.6285 H         1 UNK         0.1245 
    108 H108      -79.0930   28.2996  -75.1629 H         1 UNK         0.0781 
    109 H109      -78.7771   28.0456  -76.8470 H         1 UNK         0.0781 
    110 H110      -77.9652   31.9331  -74.4999 H         1 UNK         0.0836 
    111 H111      -79.4503   31.0151  -74.5242 H         1 UNK         0.0836 
    112 H112      -78.4845   25.8754  -75.4869 H         1 UNK         0.3022 
    113 H113      -76.4444   22.9926  -74.9860 H         1 UNK         0.0747 
    114 H114      -77.0671   23.5986  -72.6341 H         1 UNK         0.0793 
    115 H115      -78.1448   22.3800  -73.2941 H         1 UNK         0.0793 
    116 H116      -78.6757   24.0583  -73.1729 H         1 UNK         0.0793 
    117 H117      -79.2074   23.1791  -75.4327 H         1 UNK         0.3047 
    118 H118      -79.5252   24.4555  -78.5785 H         1 UNK         0.0822 
    119 H119      -78.7057   22.2512  -79.4377 H         1 UNK         0.0807 
    120 H120      -80.4587   22.3245  -79.4461 H         1 UNK         0.0807 
    121 H121      -79.6179   21.4128  -78.1905 H         1 UNK         0.0807 
    122 H122      -81.3776   22.8702  -77.1703 H         1 UNK         0.2946 
    123 H123      -83.1968   24.6351  -76.0068 H         1 UNK         0.1144 
    124 H124      -83.2728   22.8771  -74.1616 H         1 UNK         0.0793 
    125 H125      -81.5217   22.7471  -74.2280 H         1 UNK         0.0793 
    126 H126      -82.5090   22.2540  -75.6019 H         1 UNK         0.0793 
    127 H127      -81.3911   25.8612  -74.1749 H         1 UNK         0.2896 
@<TRIPOS>BOND
     1    1    2 1    
     2    1   67 1    
     3    1   68 1    
     4    1   69 1    
     5    2    3 2    
     6    2    4 am   BACKBONE|DICT|INTERRES
     7    4    5 1    
     8    4   70 1    
     9    5    6 1    
    10    5   65 1    
    11    5   71 1    
    12    6    7 1    
    13    6   72 1    
    14    6   73 1    
    15    7    8 1    
    16    8    9 1    
    17    8   74 1    
    18    8   75 1    
    19    9   10 ar   
    20    9   14 ar   
    21   10   11 ar   
    22   10   76 1    
    23   11   12 ar   
    24   11   48 1    
    25   12   13 ar   
    26   12   77 1    
    27   13   14 ar   
    28   13   15 1    
    29   14   78 1    
    30   15   16 1    
    31   15   79 1    
    32   15   80 1    
    33   16   17 1    
    34   17   18 1    
    35   17   81 1    
    36   17   82 1    
    37   18   19 1    
    38   18   22 1    
    39   18   83 1    
    40   19   20 am   BACKBONE|DICT|INTERRES
    41   19   21 2    
    42   20   84 1    
    43   20   85 1    
    44   22   23 am   BACKBONE|DICT|INTERRES
    45   22   86 1    
    46   23   24 2    
    47   23   25 1    
    48   25   26 1    
    49   25   27 1    
    50   25   87 1    
    51   26   88 1    
    52   26   89 1    
    53   26   90 1    
    54   27   28 am   BACKBONE|DICT|INTERRES
    55   27   91 1    
    56   28   29 2    
    57   28   30 1    
    58   30   31 1    
    59   30   32 1    
    60   30   92 1    
    61   31   93 1    
    62   31   94 1    
    63   31   95 1    
    64   32   33 am   BACKBONE|DICT|INTERRES
    65   32   96 1    
    66   33   34 2    
    67   33   35 1    
    68   35   36 1    
    69   35   37 1    
    70   35   97 1    
    71   36   98 1    
    72   36   99 1    
    73   36  100 1    
    74   37   38 am   BACKBONE|DICT|INTERRES
    75   37  101 1    
    76   38   39 2    
    77   38   40 1    
    78   40   41 1    
    79   40   42 1    
    80   40  102 1    
    81   41  103 1    
    82   41  104 1    
    83   41  105 1    
    84   42   43 am   BACKBONE|DICT|INTERRES
    85   42  106 1    
    86   43   44 2    
    87   43   45 1    
    88   45   46 1    
    89   45   49 1    
    90   45  107 1    
    91   46   47 1    
    92   46  108 1    
    93   46  109 1    
    94   47   48 1    
    95   48  110 1    
    96   48  111 1    
    97   49   50 am   BACKBONE|DICT|INTERRES
    98   49  112 1    
    99   50   51 2    
   100   50   52 1    
   101   52   53 1    
   102   52   54 1    
   103   52  113 1    
   104   53  114 1    
   105   53  115 1    
   106   53  116 1    
   107   54   55 am   BACKBONE|DICT|INTERRES
   108   54  117 1    
   109   55   56 2    
   110   55   57 1    
   111   57   58 1    
   112   57   59 1    
   113   57  118 1    
   114   58  119 1    
   115   58  120 1    
   116   58  121 1    
   117   59   60 am   BACKBONE|DICT|INTERRES
   118   59  122 1    
   119   60   61 2    
   120   60   62 1    
   121   62   63 1    
   122   62   64 1    
   123   62  123 1    
   124   63  124 1    
   125   63  125 1    
   126   63  126 1    
   127   64   65 am   BACKBONE|DICT|INTERRES
   128   64  127 1    
   129   65   66 2    
@<TRIPOS>SUBSTRUCTURE
     1 UNK         1 GROUP             0       ****    0 ROOT    
