@<TRIPOS>MOLECULE
3R135
127   129    1
SMALL
USER_CHARGES


@<TRIPOS>ATOM
      1 CA        -77.5500   26.3062  -73.6559 C.3       0 UNK        -0.1998 
      2 C         -78.5211   25.6034  -72.7264 C.2       0 UNK         0.4909 
      3 O         -78.4116   24.3949  -72.5136 O.2       0 UNK        -0.5240 
      4 N         -79.4841   26.3495  -72.1749 N.am      1 UNK        -0.4739 
      5 CA        -80.5837   25.8229  -71.3651 C.3       1 UNK         0.0864 
      6 C6        -81.3409   26.9471  -70.6180 C.3       11 UNK        -0.0881 
      7 S7        -80.3231   27.6676  -69.2855 S.3       11 UNK        -0.2682 
      8 C8        -80.0830   29.3838  -69.8466 C.3       11 UNK         0.0289 
      9 C9        -79.1181   29.4923  -71.0200 C.ar      11 UNK        -0.0687 
     10 C10       -79.5684   29.9390  -72.2661 C.ar      11 UNK        -0.0823 
     11 C11       -78.6758   30.0921  -73.3325 C.ar      11 UNK        -0.0830 
     12 C12       -77.3253   29.7824  -73.1470 C.ar      11 UNK        -0.1021 
     13 C13       -76.8660   29.3168  -71.9115 C.ar      11 UNK        -0.0753 
     14 C14       -77.7652   29.1809  -70.8502 C.ar      11 UNK        -0.0933 
     15 C15       -75.4063   28.9254  -71.7336 C.3       11 UNK         0.0166 
     16 S16       -74.4453   30.1847  -70.8390 S.3       11 UNK        -0.2615 
     17 C17       -74.2942   31.5145  -72.0849 C.3       11 UNK        -0.0865 
     18 CA        -72.9308   31.6163  -72.8370 C.3       10 UNK         0.0862 
     19 C         -71.6606   31.8732  -71.9658 C.2       10 UNK         0.5551 
     20 N         -71.8034   32.2959  -70.7167 N.am      10 UNK        -0.7319 
     21 O         -70.5331   31.7654  -72.4453 O.2       10 UNK        -0.5018 
     22 N         -72.7691   30.6029  -73.8955 N.am      10 UNK        -0.4509 
     23 C         -72.2977   29.3541  -73.7748 C.2       10 UNK         0.4899 
     24 O         -71.9552   28.8246  -72.7155 O.2       10 UNK        -0.4839 
     25 CA        -72.1405   28.5829  -75.0970 C.3       9 UNK         0.0222 
     26 CB        -70.7818   28.8962  -75.7450 C.3       9 UNK        -0.1966 
     27 N         -72.2579   27.1348  -74.9167 N.am      9 UNK        -0.4218 
     28 C         -73.4053   26.4956  -74.6631 C.2       9 UNK         0.5020 
     29 O         -74.4996   27.0536  -74.5973 O.2       9 UNK        -0.5274 
     30 CA        -73.3264   24.9671  -74.5821 C.3       8 UNK         0.0270 
     31 CB        -74.3621   24.3655  -73.6170 C.3       8 UNK        -0.1976 
     32 N         -73.5903   24.4944  -75.9336 N.am      8 UNK        -0.4313 
     33 C         -72.7110   23.8507  -76.7098 C.2       8 UNK         0.5041 
     34 O         -71.6637   23.3457  -76.3038 O.2       8 UNK        -0.5577 
     35 CA        -73.0265   23.8471  -78.2153 C.3       7 UNK         0.0284 
     36 CB        -74.1020   22.7996  -78.5480 C.3       7 UNK        -0.1958 
     37 N         -73.4681   25.1736  -78.6598 N.am      7 UNK        -0.4454 
     38 C         -72.6908   26.2706  -78.6694 C.2       7 UNK         0.5089 
     39 O         -71.4738   26.2510  -78.4878 O.2       7 UNK        -0.5125 
     40 CA        -73.3972   27.6205  -78.8498 C.3       6 UNK         0.0408 
     41 CB        -73.6012   27.9535  -80.3377 C.3       6 UNK        -0.1791 
     42 N         -74.6750   27.6088  -78.1423 N.am      6 UNK        -0.4762 
     43 C         -75.3585   28.6572  -77.6796 C.2       6 UNK         0.5007 
     44 O         -74.9748   29.8207  -77.8117 O.2       6 UNK        -0.5032 
     45 CA        -76.7035   28.3489  -76.9686 C.3       5 UNK         0.0783 
     46 C46       -77.5723   29.6261  -76.8096 C.3       11 UNK        -0.0857 
     47 S47       -79.1656   29.3288  -75.9617 S.3       11 UNK        -0.2512 
     48 C48       -79.1711   30.6168  -74.6731 C.3       11 UNK         0.0225 
     49 N         -77.4646   27.2640  -77.6117 N.am      5 UNK        -0.4615 
     50 C         -77.1848   25.9557  -77.5958 C.2       4 UNK         0.5053 
     51 O         -76.1520   25.4731  -77.1192 O.2       4 UNK        -0.5105 
     52 CA        -78.1963   25.0329  -78.2919 C.3       4 UNK         0.0263 
     53 CB        -77.6671   24.5974  -79.6678 C.3       4 UNK        -0.1981 
     54 N         -78.4655   23.8498  -77.4750 N.am      4 UNK        -0.4224 
     55 C         -79.1417   23.8794  -76.3194 C.2       3 UNK         0.4895 
     56 O         -79.7048   24.8880  -75.8870 O.2       3 UNK        -0.5091 
     57 CA        -79.1676   22.5676  -75.5170 C.3       3 UNK         0.0250 
     58 CB        -77.7512   22.1817  -75.0497 C.3       3 UNK        -0.1996 
     59 N         -80.0323   22.6951  -74.3422 N.am      3 UNK        -0.4254 
     60 C         -81.3465   22.4297  -74.3268 C.2       2 UNK         0.5004 
     61 O         -81.9592   21.9659  -75.2900 O.2       2 UNK        -0.5226 
     62 CA        -82.1170   22.7058  -73.0210 C.3       2 UNK         0.0269 
     63 CB        -82.3454   21.3967  -72.2471 C.3       2 UNK        -0.1926 
     64 N         -81.4308   23.6612  -72.1477 N.am      2 UNK        -0.4687 
     65 C         -81.5225   24.9928  -72.2635 C.2       1 UNK         0.5165 
     66 O         -82.2778   25.5645  -73.0525 O.2       1 UNK        -0.5079 
     67 H67       -77.9734   27.2288  -74.0482 H         1 UNK         0.0900 
     68 H68       -76.6280   26.5414  -73.1273 H         1 UNK         0.0900 
     69 H69       -77.3103   25.6718  -74.5075 H         1 UNK         0.0900 
     70 H70       -79.5129   27.3422  -72.3622 H         1 UNK         0.2959 
     71 H71       -80.1572   25.1540  -70.6137 H         1 UNK         0.1079 
     72 H72       -81.6703   27.7243  -71.3102 H         1 UNK         0.0837 
     73 H73       -82.2467   26.5535  -70.1526 H         1 UNK         0.0837 
     74 H74       -79.6869   29.9678  -69.0147 H         1 UNK         0.0685 
     75 H75       -81.0518   29.8232  -70.0897 H         1 UNK         0.0685 
     76 H76       -80.6128   30.1865  -72.4005 H         1 UNK         0.1434 
     77 H77       -76.6319   29.8880  -73.9692 H         1 UNK         0.1329 
     78 H78       -77.4125   28.8290  -69.8902 H         1 UNK         0.1335 
     79 H79       -74.9412   28.7409  -72.7005 H         1 UNK         0.0680 
     80 H80       -75.3487   27.9836  -71.1862 H         1 UNK         0.0680 
     81 H81       -74.4980   32.4580  -71.5762 H         1 UNK         0.1032 
     82 H82       -75.0993   31.4230  -72.8128 H         1 UNK         0.1032 
     83 H83       -73.0031   32.5417  -73.4099 H         1 UNK         0.0461 
     84 H84       -72.7181   32.3678  -70.2997 H         1 UNK         0.3453 
     85 H85       -70.9819   32.4889  -70.1656 H         1 UNK         0.3453 
     86 H86       -72.9765   30.9335  -74.8268 H         1 UNK         0.2984 
     87 H87       -72.9290   28.9024  -75.7816 H         1 UNK         0.0554 
     88 H88       -70.6753   29.9648  -75.9366 H         1 UNK         0.0847 
     89 H89       -70.6691   28.3852  -76.7015 H         1 UNK         0.0847 
     90 H90       -69.9511   28.5978  -75.1040 H         1 UNK         0.0847 
     91 H91       -71.4020   26.6012  -74.9625 H         1 UNK         0.3141 
     92 H92       -72.3284   24.6832  -74.2414 H         1 UNK         0.0743 
     93 H93       -74.2847   24.8151  -72.6264 H         1 UNK         0.0784 
     94 H94       -75.3800   24.5183  -73.9707 H         1 UNK         0.0784 
     95 H95       -74.2129   23.2919  -73.5028 H         1 UNK         0.0784 
     96 H96       -74.4350   24.8680  -76.3602 H         1 UNK         0.3213 
     97 H97       -72.1122   23.5906  -78.7551 H         1 UNK         0.0855 
     98 H98       -75.0402   22.9987  -78.0285 H         1 UNK         0.0814 
     99 H99       -73.7742   21.8018  -78.2531 H         1 UNK         0.0814 
    100 H100      -74.3086   22.7678  -79.6179 H         1 UNK         0.0814 
    101 H101      -74.4510   25.2692  -78.8647 H         1 UNK         0.3105 
    102 H102      -72.7598   28.3859  -78.4021 H         1 UNK         0.0547 
    103 H103      -74.2635   27.2376  -80.8255 H         1 UNK         0.0837 
    104 H104      -74.0301   28.9473  -80.4665 H         1 UNK         0.0837 
    105 H105      -72.6513   27.9400  -80.8737 H         1 UNK         0.0837 
    106 H106      -75.0497   26.7002  -77.8845 H         1 UNK         0.3020 
    107 H107      -76.4405   28.0077  -75.9658 H         1 UNK         0.1245 
    108 H108      -77.7950   30.0560  -77.7880 H         1 UNK         0.0781 
    109 H109      -77.0150   30.3922  -76.2684 H         1 UNK         0.0781 
    110 H110      -80.1918   30.9900  -74.5763 H         1 UNK         0.0836 
    111 H111      -78.5738   31.4759  -74.9809 H         1 UNK         0.0836 
    112 H112      -78.3258   27.5589  -78.0484 H         1 UNK         0.3022 
    113 H113      -79.1354   25.5720  -78.4360 H         1 UNK         0.0747 
    114 H114      -76.7395   24.0302  -79.5873 H         1 UNK         0.0793 
    115 H115      -78.3936   23.9765  -80.1924 H         1 UNK         0.0793 
    116 H116      -77.4664   25.4627  -80.3013 H         1 UNK         0.0793 
    117 H117      -78.0096   22.9937  -77.7540 H         1 UNK         0.3047 
    118 H118      -79.5472   21.7763  -76.1672 H         1 UNK         0.0822 
    119 H119      -77.7688   21.2829  -74.4330 H         1 UNK         0.0807 
    120 H120      -77.2870   22.9766  -74.4657 H         1 UNK         0.0807 
    121 H121      -77.0930   21.9766  -75.8945 H         1 UNK         0.0807 
    122 H122      -79.6160   23.1598  -73.5411 H         1 UNK         0.2946 
    123 H123      -83.0927   23.1110  -73.3002 H         1 UNK         0.1144 
    124 H124      -82.9436   21.5646  -71.3512 H         1 UNK         0.0793 
    125 H125      -81.4043   20.9370  -71.9426 H         1 UNK         0.0793 
    126 H126      -82.8800   20.6694  -72.8599 H         1 UNK         0.0793 
    127 H127      -80.7621   23.2759  -71.4950 H         1 UNK         0.2896 
@<TRIPOS>BOND
     1    1    2 1    
     2    1   67 1    
     3    1   68 1    
     4    1   69 1    
     5    2    3 2    
     6    2    4 am   BACKBONE|DICT|INTERRES
     7    4    5 1    
     8    4   70 1    
     9    5    6 1    
    10    5   65 1    
    11    5   71 1    
    12    6    7 1    
    13    6   72 1    
    14    6   73 1    
    15    7    8 1    
    16    8    9 1    
    17    8   74 1    
    18    8   75 1    
    19    9   10 ar   
    20    9   14 ar   
    21   10   11 ar   
    22   10   76 1    
    23   11   12 ar   
    24   11   48 1    
    25   12   13 ar   
    26   12   77 1    
    27   13   14 ar   
    28   13   15 1    
    29   14   78 1    
    30   15   16 1    
    31   15   79 1    
    32   15   80 1    
    33   16   17 1    
    34   17   18 1    
    35   17   81 1    
    36   17   82 1    
    37   18   19 1    
    38   18   22 1    
    39   18   83 1    
    40   19   20 am   BACKBONE|DICT|INTERRES
    41   19   21 2    
    42   20   84 1    
    43   20   85 1    
    44   22   23 am   BACKBONE|DICT|INTERRES
    45   22   86 1    
    46   23   24 2    
    47   23   25 1    
    48   25   26 1    
    49   25   27 1    
    50   25   87 1    
    51   26   88 1    
    52   26   89 1    
    53   26   90 1    
    54   27   28 am   BACKBONE|DICT|INTERRES
    55   27   91 1    
    56   28   29 2    
    57   28   30 1    
    58   30   31 1    
    59   30   32 1    
    60   30   92 1    
    61   31   93 1    
    62   31   94 1    
    63   31   95 1    
    64   32   33 am   BACKBONE|DICT|INTERRES
    65   32   96 1    
    66   33   34 2    
    67   33   35 1    
    68   35   36 1    
    69   35   37 1    
    70   35   97 1    
    71   36   98 1    
    72   36   99 1    
    73   36  100 1    
    74   37   38 am   BACKBONE|DICT|INTERRES
    75   37  101 1    
    76   38   39 2    
    77   38   40 1    
    78   40   41 1    
    79   40   42 1    
    80   40  102 1    
    81   41  103 1    
    82   41  104 1    
    83   41  105 1    
    84   42   43 am   BACKBONE|DICT|INTERRES
    85   42  106 1    
    86   43   44 2    
    87   43   45 1    
    88   45   46 1    
    89   45   49 1    
    90   45  107 1    
    91   46   47 1    
    92   46  108 1    
    93   46  109 1    
    94   47   48 1    
    95   48  110 1    
    96   48  111 1    
    97   49   50 am   BACKBONE|DICT|INTERRES
    98   49  112 1    
    99   50   51 2    
   100   50   52 1    
   101   52   53 1    
   102   52   54 1    
   103   52  113 1    
   104   53  114 1    
   105   53  115 1    
   106   53  116 1    
   107   54   55 am   BACKBONE|DICT|INTERRES
   108   54  117 1    
   109   55   56 2    
   110   55   57 1    
   111   57   58 1    
   112   57   59 1    
   113   57  118 1    
   114   58  119 1    
   115   58  120 1    
   116   58  121 1    
   117   59   60 am   BACKBONE|DICT|INTERRES
   118   59  122 1    
   119   60   61 2    
   120   60   62 1    
   121   62   63 1    
   122   62   64 1    
   123   62  123 1    
   124   63  124 1    
   125   63  125 1    
   126   63  126 1    
   127   64   65 am   BACKBONE|DICT|INTERRES
   128   64  127 1    
   129   65   66 2    
@<TRIPOS>SUBSTRUCTURE
     1 UNK         1 GROUP             0       ****    0 ROOT    
