@<TRIPOS>MOLECULE
3R135
127   129    1
SMALL
USER_CHARGES


@<TRIPOS>ATOM
      1 CA        -79.5993   30.8691  -76.2115 C.3       0 UNK        -0.1998 
      2 C         -80.5917   30.0753  -75.3737 C.2       0 UNK         0.4909 
      3 O         -81.7987   30.2030  -75.5802 O.2       0 UNK        -0.5240 
      4 N         -80.0767   29.2755  -74.4302 N.am      1 UNK        -0.4739 
      5 CA        -80.7886   28.3419  -73.5483 C.3       1 UNK         0.0864 
      6 C6        -81.9845   28.9703  -72.7815 C.3       11 UNK        -0.0881 
      7 S7        -82.3486   28.0891  -71.2240 S.3       11 UNK        -0.2682 
      8 C8        -81.4211   29.0785  -70.0083 C.3       11 UNK         0.0289 
      9 C9        -79.9235   29.0499  -70.2791 C.ar      11 UNK        -0.0687 
     10 C10       -79.1720   27.9141  -69.9655 C.ar      11 UNK        -0.0823 
     11 C11       -77.7983   27.8789  -70.2209 C.ar      11 UNK        -0.0830 
     12 C12       -77.1780   29.0049  -70.7737 C.ar      11 UNK        -0.1021 
     13 C13       -77.9192   30.1426  -71.1201 C.ar      11 UNK        -0.0753 
     14 C14       -79.2926   30.1534  -70.8604 C.ar      11 UNK        -0.0933 
     15 C15       -77.3038   31.3773  -71.7854 C.3       11 UNK         0.0166 
     16 S16       -75.4802   31.4681  -71.7976 S.3       11 UNK        -0.2615 
     17 C17       -75.0598   30.3496  -73.1795 C.3       11 UNK        -0.0865 
     18 CA        -73.5328   30.1107  -73.3040 C.3       10 UNK         0.0862 
     19 C         -72.9886   29.1550  -72.2055 C.2       10 UNK         0.5551 
     20 N         -72.9119   27.8550  -72.4590 N.am      10 UNK        -0.7319 
     21 O         -72.6050   29.5997  -71.1266 O.2       10 UNK        -0.5018 
     22 N         -73.1903   29.6509  -74.6563 N.am      10 UNK        -0.4509 
     23 C         -72.1047   30.0385  -75.3359 C.2       10 UNK         0.4899 
     24 O         -71.3031   30.8844  -74.9343 O.2       10 UNK        -0.4839 
     25 CA        -71.8951   29.3619  -76.7008 C.3       9 UNK         0.0222 
     26 CB        -70.6196   29.8335  -77.4324 C.3       9 UNK        -0.1966 
     27 N         -71.9454   27.8996  -76.6053 N.am      9 UNK        -0.4218 
     28 C         -71.1018   27.0880  -75.9455 C.2       9 UNK         0.5020 
     29 O         -70.1215   27.4883  -75.3160 O.2       9 UNK        -0.5274 
     30 CA        -71.3767   25.5684  -75.9854 C.3       8 UNK         0.0270 
     31 CB        -71.5698   25.0052  -74.5667 C.3       8 UNK        -0.1976 
     32 N         -72.5279   25.1887  -76.8094 N.am      8 UNK        -0.4313 
     33 C         -72.5520   25.1908  -78.1491 C.2       8 UNK         0.5041 
     34 O         -71.5672   25.4227  -78.8508 O.2       8 UNK        -0.5577 
     35 CA        -73.9152   24.9470  -78.8197 C.3       7 UNK         0.0284 
     36 CB        -74.1322   23.4452  -79.0616 C.3       7 UNK        -0.1958 
     37 N         -75.0455   25.5041  -78.0634 N.am      7 UNK        -0.4454 
     38 C         -75.2227   26.8103  -77.8070 C.2       7 UNK         0.5089 
     39 O         -74.4612   27.6904  -78.2059 O.2       7 UNK        -0.5125 
     40 CA        -76.4036   27.2022  -76.9014 C.3       6 UNK         0.0408 
     41 CB        -77.7342   27.1641  -77.6686 C.3       6 UNK        -0.1791 
     42 N         -76.4954   26.3542  -75.7143 N.am      6 UNK        -0.4762 
     43 C         -75.5764   26.2865  -74.7406 C.2       6 UNK         0.5007 
     44 O         -74.5771   27.0073  -74.6912 O.2       6 UNK        -0.5032 
     45 CA        -75.7864   25.1862  -73.6809 C.3       5 UNK         0.0783 
     46 C46       -76.6945   25.6548  -72.5102 C.3       11 UNK        -0.0857 
     47 S47       -75.7041   26.2060  -71.0844 S.3       11 UNK        -0.2512 
     48 C48       -76.9929   26.6320  -69.8631 C.3       11 UNK         0.0225 
     49 N         -76.2784   23.9498  -74.2962 N.am      5 UNK        -0.4615 
     50 C         -75.5347   23.1331  -75.0538 C.2       4 UNK         0.5053 
     51 O         -74.3498   23.3369  -75.3144 O.2       4 UNK        -0.5105 
     52 CA        -76.2341   21.8930  -75.6368 C.3       4 UNK         0.0263 
     53 CB        -76.2392   20.7468  -74.6131 C.3       4 UNK        -0.1981 
     54 N         -77.6048   22.1612  -76.0798 N.am      4 UNK        -0.4224 
     55 C         -77.9168   22.9494  -77.1178 C.2       3 UNK         0.4895 
     56 O         -77.0833   23.5148  -77.8233 O.2       3 UNK        -0.5091 
     57 CA        -79.4112   23.1934  -77.3869 C.3       3 UNK         0.0250 
     58 CB        -80.0115   22.0282  -78.1899 C.3       3 UNK        -0.1996 
     59 N         -80.2259   23.4399  -76.1895 N.am      3 UNK        -0.4254 
     60 C         -79.9577   24.3480  -75.2407 C.2       2 UNK         0.5004 
     61 O         -78.9076   24.9915  -75.1784 O.2       2 UNK        -0.5226 
     62 CA        -81.0285   24.5560  -74.1569 C.3       2 UNK         0.0269 
     63 CB        -80.8471   23.5315  -73.0251 C.3       2 UNK        -0.1926 
     64 N         -80.9484   25.9046  -73.5901 N.am      2 UNK        -0.4687 
     65 C         -81.1642   27.0359  -74.2767 C.2       1 UNK         0.5165 
     66 O         -81.6236   27.0597  -75.4213 O.2       1 UNK        -0.5079 
     67 H67       -79.7048   30.6070  -77.2639 H         1 UNK         0.0900 
     68 H68       -78.5675   30.6772  -75.9173 H         1 UNK         0.0900 
     69 H69       -79.7884   31.9370  -76.1054 H         1 UNK         0.0900 
     70 H70       -79.0714   29.2328  -74.3444 H         1 UNK         0.2959 
     71 H71       -80.0266   28.0730  -72.8166 H         1 UNK         0.1079 
     72 H72       -82.8839   28.9815  -73.4001 H         1 UNK         0.0837 
     73 H73       -81.7780   30.0154  -72.5472 H         1 UNK         0.0837 
     74 H74       -81.6162   28.6850  -69.0097 H         1 UNK         0.0685 
     75 H75       -81.7981   30.1025  -70.0112 H         1 UNK         0.0685 
     76 H76       -79.6629   27.0571  -69.5243 H         1 UNK         0.1434 
     77 H77       -76.1112   28.9766  -70.9349 H         1 UNK         0.1329 
     78 H78       -79.8765   31.0263  -71.1193 H         1 UNK         0.1335 
     79 H79       -77.6704   31.4489  -72.8105 H         1 UNK         0.0680 
     80 H80       -77.6682   32.2661  -71.2681 H         1 UNK         0.0680 
     81 H81       -75.4322   30.8220  -74.0900 H         1 UNK         0.1032 
     82 H82       -75.5980   29.4039  -73.0987 H         1 UNK         0.1032 
     83 H83       -73.0473   31.0754  -73.1423 H         1 UNK         0.0461 
     84 H84       -73.2963   27.4869  -73.3208 H         1 UNK         0.3453 
     85 H85       -72.5563   27.2339  -71.7512 H         1 UNK         0.3453 
     86 H86       -73.7465   28.8830  -75.0154 H         1 UNK         0.2984 
     87 H87       -72.7460   29.6545  -77.3174 H         1 UNK         0.0554 
     88 H88       -70.5192   29.3508  -78.4044 H         1 UNK         0.0847 
     89 H89       -69.7168   29.6230  -76.8584 H         1 UNK         0.0847 
     90 H90       -70.6472   30.9098  -77.6066 H         1 UNK         0.0847 
     91 H91       -72.7315   27.4762  -77.0862 H         1 UNK         0.3141 
     92 H92       -70.4874   25.1002  -76.4122 H         1 UNK         0.0743 
     93 H93       -72.4537   25.4207  -74.0847 H         1 UNK         0.0784 
     94 H94       -71.6773   23.9205  -74.5827 H         1 UNK         0.0784 
     95 H95       -70.7138   25.2344  -73.9306 H         1 UNK         0.0784 
     96 H96       -73.3651   24.9024  -76.3127 H         1 UNK         0.3213 
     97 H97       -73.8938   25.4469  -79.7905 H         1 UNK         0.0855 
     98 H98       -74.2083   22.8930  -78.1245 H         1 UNK         0.0814 
     99 H99       -73.3043   23.0161  -79.6276 H         1 UNK         0.0814 
    100 H100      -75.0421   23.2631  -79.6335 H         1 UNK         0.0814 
    101 H101      -75.7523   24.8409  -77.7518 H         1 UNK         0.3105 
    102 H102      -76.2391   28.2274  -76.5629 H         1 UNK         0.0547 
    103 H103      -77.7032   27.8239  -78.5365 H         1 UNK         0.0837 
    104 H104      -77.9655   26.1613  -78.0281 H         1 UNK         0.0837 
    105 H105      -78.5637   27.4906  -77.0405 H         1 UNK         0.0837 
    106 H106      -77.3152   25.7527  -75.6402 H         1 UNK         0.3020 
    107 H107      -74.7961   24.9517  -73.2832 H         1 UNK         0.1245 
    108 H108      -77.3847   26.4464  -72.8106 H         1 UNK         0.0781 
    109 H109      -77.3235   24.8349  -72.1595 H         1 UNK         0.0781 
    110 H110      -77.6498   25.7703  -69.7343 H         1 UNK         0.0836 
    111 H111      -76.5128   26.7999  -68.8983 H         1 UNK         0.0836 
    112 H112      -77.2705   23.7745  -74.2198 H         1 UNK         0.3022 
    113 H113      -75.6579   21.5683  -76.5059 H         1 UNK         0.0747 
    114 H114      -76.6538   19.8341  -75.0416 H         1 UNK         0.0793 
    115 H115      -75.2254   20.5158  -74.2827 H         1 UNK         0.0793 
    116 H116      -76.8219   20.9971  -73.7257 H         1 UNK         0.0793 
    117 H117      -78.3546   21.7427  -75.5489 H         1 UNK         0.3047 
    118 H118      -79.4786   24.0934  -78.0015 H         1 UNK         0.0822 
    119 H119      -80.0307   21.1040  -77.6111 H         1 UNK         0.0807 
    120 H120      -79.4298   21.8354  -79.0928 H         1 UNK         0.0807 
    121 H121      -81.0312   22.2475  -78.5070 H         1 UNK         0.0807 
    122 H122      -81.1024   22.9402  -76.1405 H         1 UNK         0.2946 
    123 H123      -82.0160   24.4312  -74.6069 H         1 UNK         0.1144 
    124 H124      -81.6084   23.6538  -72.2542 H         1 UNK         0.0793 
    125 H125      -79.8700   23.6238  -72.5488 H         1 UNK         0.0793 
    126 H126      -80.9318   22.5109  -73.4006 H         1 UNK         0.0793 
    127 H127      -80.5881   25.9718  -72.6497 H         1 UNK         0.2896 
@<TRIPOS>BOND
     1    1    2 1    
     2    1   67 1    
     3    1   68 1    
     4    1   69 1    
     5    2    3 2    
     6    2    4 am   BACKBONE|DICT|INTERRES
     7    4    5 1    
     8    4   70 1    
     9    5    6 1    
    10    5   65 1    
    11    5   71 1    
    12    6    7 1    
    13    6   72 1    
    14    6   73 1    
    15    7    8 1    
    16    8    9 1    
    17    8   74 1    
    18    8   75 1    
    19    9   10 ar   
    20    9   14 ar   
    21   10   11 ar   
    22   10   76 1    
    23   11   12 ar   
    24   11   48 1    
    25   12   13 ar   
    26   12   77 1    
    27   13   14 ar   
    28   13   15 1    
    29   14   78 1    
    30   15   16 1    
    31   15   79 1    
    32   15   80 1    
    33   16   17 1    
    34   17   18 1    
    35   17   81 1    
    36   17   82 1    
    37   18   19 1    
    38   18   22 1    
    39   18   83 1    
    40   19   20 am   BACKBONE|DICT|INTERRES
    41   19   21 2    
    42   20   84 1    
    43   20   85 1    
    44   22   23 am   BACKBONE|DICT|INTERRES
    45   22   86 1    
    46   23   24 2    
    47   23   25 1    
    48   25   26 1    
    49   25   27 1    
    50   25   87 1    
    51   26   88 1    
    52   26   89 1    
    53   26   90 1    
    54   27   28 am   BACKBONE|DICT|INTERRES
    55   27   91 1    
    56   28   29 2    
    57   28   30 1    
    58   30   31 1    
    59   30   32 1    
    60   30   92 1    
    61   31   93 1    
    62   31   94 1    
    63   31   95 1    
    64   32   33 am   BACKBONE|DICT|INTERRES
    65   32   96 1    
    66   33   34 2    
    67   33   35 1    
    68   35   36 1    
    69   35   37 1    
    70   35   97 1    
    71   36   98 1    
    72   36   99 1    
    73   36  100 1    
    74   37   38 am   BACKBONE|DICT|INTERRES
    75   37  101 1    
    76   38   39 2    
    77   38   40 1    
    78   40   41 1    
    79   40   42 1    
    80   40  102 1    
    81   41  103 1    
    82   41  104 1    
    83   41  105 1    
    84   42   43 am   BACKBONE|DICT|INTERRES
    85   42  106 1    
    86   43   44 2    
    87   43   45 1    
    88   45   46 1    
    89   45   49 1    
    90   45  107 1    
    91   46   47 1    
    92   46  108 1    
    93   46  109 1    
    94   47   48 1    
    95   48  110 1    
    96   48  111 1    
    97   49   50 am   BACKBONE|DICT|INTERRES
    98   49  112 1    
    99   50   51 2    
   100   50   52 1    
   101   52   53 1    
   102   52   54 1    
   103   52  113 1    
   104   53  114 1    
   105   53  115 1    
   106   53  116 1    
   107   54   55 am   BACKBONE|DICT|INTERRES
   108   54  117 1    
   109   55   56 2    
   110   55   57 1    
   111   57   58 1    
   112   57   59 1    
   113   57  118 1    
   114   58  119 1    
   115   58  120 1    
   116   58  121 1    
   117   59   60 am   BACKBONE|DICT|INTERRES
   118   59  122 1    
   119   60   61 2    
   120   60   62 1    
   121   62   63 1    
   122   62   64 1    
   123   62  123 1    
   124   63  124 1    
   125   63  125 1    
   126   63  126 1    
   127   64   65 am   BACKBONE|DICT|INTERRES
   128   64  127 1    
   129   65   66 2    
@<TRIPOS>SUBSTRUCTURE
     1 UNK         1 GROUP             0       ****    0 ROOT    
