@<TRIPOS>MOLECULE
3R135
127   129    1
SMALL
USER_CHARGES


@<TRIPOS>ATOM
      1 CA        -85.1027   28.1088  -71.0050 C.3       0 UNK        -0.1998 
      2 C         -84.7813   27.8400  -72.4672 C.2       0 UNK         0.4909 
      3 O         -85.4885   27.0704  -73.1183 O.2       0 UNK        -0.5240 
      4 N         -83.7222   28.4725  -72.9885 N.am      1 UNK        -0.4739 
      5 CA        -83.2279   28.3102  -74.3623 C.3       1 UNK         0.0864 
      6 C6        -82.2431   29.4379  -74.7702 C.3       11 UNK        -0.0881 
      7 S7        -80.9567   29.7898  -73.5216 S.3       11 UNK        -0.2682 
      8 C8        -79.4817   29.0794  -74.3064 C.3       11 UNK         0.0289 
      9 C9        -78.3230   29.0608  -73.3255 C.ar      11 UNK        -0.0687 
     10 C10       -78.0438   27.9058  -72.5925 C.ar      11 UNK        -0.0823 
     11 C11       -77.0251   27.8980  -71.6349 C.ar      11 UNK        -0.0830 
     12 C12       -76.2660   29.0577  -71.4324 C.ar      11 UNK        -0.1021 
     13 C13       -76.5438   30.2245  -72.1559 C.ar      11 UNK        -0.0753 
     14 C14       -77.5665   30.2142  -73.1085 C.ar      11 UNK        -0.0933 
     15 C15       -75.8213   31.5292  -71.8438 C.3       11 UNK         0.0166 
     16 S16       -74.8365   32.1524  -73.2439 S.3       11 UNK        -0.2615 
     17 C17       -73.3165   31.1570  -73.1014 C.3       11 UNK        -0.0865 
     18 CA        -73.0779   30.2307  -74.3304 C.3       10 UNK         0.0862 
     19 C         -72.2906   30.9193  -75.4894 C.2       10 UNK         0.5551 
     20 N         -71.4644   30.2068  -76.2467 N.am      10 UNK        -0.7319 
     21 O         -72.4329   32.1177  -75.7194 O.2       10 UNK        -0.5018 
     22 N         -72.5563   28.9190  -73.9230 N.am      10 UNK        -0.4509 
     23 C         -71.4036   28.6971  -73.2768 C.2       10 UNK         0.4899 
     24 O         -70.5991   29.5780  -72.9735 O.2       10 UNK        -0.4839 
     25 CA        -71.1008   27.2447  -72.8949 C.3       9 UNK         0.0222 
     26 CB        -71.9210   26.8333  -71.6617 C.3       9 UNK        -0.1966 
     27 N         -71.4054   26.3490  -74.0109 N.am      9 UNK        -0.4218 
     28 C         -70.4962   25.6204  -74.6695 C.2       9 UNK         0.5020 
     29 O         -69.3025   25.5669  -74.3681 O.2       9 UNK        -0.5274 
     30 CA        -70.9931   24.8035  -75.8725 C.3       8 UNK         0.0270 
     31 CB        -71.4772   23.4171  -75.4164 C.3       8 UNK        -0.1976 
     32 N         -72.0475   25.4540  -76.6556 N.am      8 UNK        -0.4313 
     33 C         -71.9024   26.5890  -77.3554 C.2       8 UNK         0.5041 
     34 O         -70.8902   27.2887  -77.3243 O.2       8 UNK        -0.5577 
     35 CA        -73.0772   27.0130  -78.2477 C.3       7 UNK         0.0284 
     36 CB        -73.1757   26.1035  -79.4841 C.3       7 UNK        -0.1958 
     37 N         -74.3370   26.9653  -77.5092 N.am      7 UNK        -0.4454 
     38 C         -75.0206   28.0393  -77.0923 C.2       7 UNK         0.5089 
     39 O         -74.7111   29.1991  -77.3624 O.2       7 UNK        -0.5125 
     40 CA        -76.2713   27.7878  -76.2261 C.3       6 UNK         0.0408 
     41 CB        -77.5218   27.7987  -77.1201 C.3       6 UNK        -0.1791 
     42 N         -76.2549   26.5372  -75.4607 N.am      6 UNK        -0.4762 
     43 C         -75.2932   26.1340  -74.6160 C.2       6 UNK         0.5007 
     44 O         -74.2700   26.7752  -74.3728 O.2       6 UNK        -0.5032 
     45 CA        -75.4482   24.7179  -74.0282 C.3       5 UNK         0.0783 
     46 C46       -76.3227   24.7147  -72.7520 C.3       11 UNK        -0.0857 
     47 S47       -75.5166   25.5513  -71.3438 S.3       11 UNK        -0.2512 
     48 C48       -76.8197   26.6741  -70.7484 C.3       11 UNK         0.0225 
     49 N         -75.9455   23.7497  -75.0135 N.am      5 UNK        -0.4615 
     50 C         -75.4355   23.4991  -76.2271 C.2       4 UNK         0.5053 
     51 O         -74.4482   24.0730  -76.6861 O.2       4 UNK        -0.5105 
     52 CA        -76.1788   22.4818  -77.1076 C.3       4 UNK         0.0263 
     53 CB        -75.8684   21.0344  -76.6790 C.3       4 UNK        -0.1981 
     54 N         -77.6239   22.7374  -77.2064 N.am      4 UNK        -0.4224 
     55 C         -78.5566   22.6453  -76.2482 C.2       3 UNK         0.4895 
     56 O         -78.3380   22.2429  -75.1021 O.2       3 UNK        -0.5091 
     57 CA        -79.9725   23.0850  -76.6513 C.3       3 UNK         0.0250 
     58 CB        -80.7257   21.9219  -77.3174 C.3       3 UNK        -0.1996 
     59 N         -80.7543   23.5666  -75.5116 N.am      3 UNK        -0.4254 
     60 C         -80.4836   24.6620  -74.7887 C.2       2 UNK         0.5004 
     61 O         -79.5262   25.4144  -74.9916 O.2       2 UNK        -0.5226 
     62 CA        -81.4547   24.9506  -73.6290 C.3       2 UNK         0.0269 
     63 CB        -80.7933   24.6459  -72.2747 C.3       2 UNK        -0.1926 
     64 N         -81.9711   26.3231  -73.6255 N.am      2 UNK        -0.4687 
     65 C         -82.6524   26.9020  -74.6275 C.2       1 UNK         0.5165 
     66 O         -82.8815   26.3568  -75.7085 O.2       1 UNK        -0.5079 
     67 H67       -85.0657   27.1802  -70.4361 H         1 UNK         0.0900 
     68 H68       -86.1047   28.5263  -70.9117 H         1 UNK         0.0900 
     69 H69       -84.4000   28.8102  -70.5553 H         1 UNK         0.0900 
     70 H70       -83.1756   29.0970  -72.4110 H         1 UNK         0.2959 
     71 H71       -84.0967   28.3984  -75.0190 H         1 UNK         0.1079 
     72 H72       -81.7848   29.2317  -75.7397 H         1 UNK         0.0837 
     73 H73       -82.8062   30.3615  -74.9120 H         1 UNK         0.0837 
     74 H74       -79.7062   28.0678  -74.6447 H         1 UNK         0.0685 
     75 H75       -79.2186   29.6604  -75.1915 H         1 UNK         0.0685 
     76 H76       -78.6499   27.0260  -72.7484 H         1 UNK         0.1434 
     77 H77       -75.4936   29.0647  -70.6756 H         1 UNK         0.1329 
     78 H78       -77.8003   31.1186  -73.6536 H         1 UNK         0.1335 
     79 H79       -75.1891   31.4303  -70.9601 H         1 UNK         0.0680 
     80 H80       -76.5683   32.2828  -71.5912 H         1 UNK         0.0680 
     81 H81       -72.4664   31.8215  -72.9374 H         1 UNK         0.1032 
     82 H82       -73.3894   30.5618  -72.1905 H         1 UNK         0.1032 
     83 H83       -74.0513   29.9934  -74.7598 H         1 UNK         0.0461 
     84 H84       -70.9684   30.6646  -76.9937 H         1 UNK         0.3453 
     85 H85       -71.3470   29.2144  -76.1046 H         1 UNK         0.3453 
     86 H86       -73.1789   28.1345  -74.1070 H         1 UNK         0.2984 
     87 H87       -70.0434   27.1868  -72.6290 H         1 UNK         0.0554 
     88 H88       -71.7226   25.7999  -71.3778 H         1 UNK         0.0847 
     89 H89       -72.9918   26.9324  -71.8388 H         1 UNK         0.0847 
     90 H90       -71.6753   27.4600  -70.8035 H         1 UNK         0.0847 
     91 H91       -72.3667   26.3455  -74.3380 H         1 UNK         0.3141 
     92 H92       -70.1403   24.6594  -76.5392 H         1 UNK         0.0743 
     93 H93       -72.3443   23.4876  -74.7594 H         1 UNK         0.0784 
     94 H94       -71.7525   22.7929  -76.2668 H         1 UNK         0.0784 
     95 H95       -70.6945   22.8905  -74.8685 H         1 UNK         0.0784 
     96 H96       -72.9246   24.9392  -76.7322 H         1 UNK         0.3213 
     97 H97       -72.8760   28.0290  -78.5949 H         1 UNK         0.0855 
     98 H98       -73.3918   25.0687  -79.2152 H         1 UNK         0.0814 
     99 H99       -72.2408   26.1072  -80.0463 H         1 UNK         0.0814 
    100 H100      -73.9607   26.4425  -80.1601 H         1 UNK         0.0814 
    101 H101      -74.6531   26.0499  -77.2103 H         1 UNK         0.3105 
    102 H102      -76.3453   28.6049  -75.5062 H         1 UNK         0.0547 
    103 H103      -77.6407   28.7653  -77.6113 H         1 UNK         0.0837 
    104 H104      -77.4629   27.0407  -77.9021 H         1 UNK         0.0837 
    105 H105      -78.4298   27.6096  -76.5501 H         1 UNK         0.0837 
    106 H106      -77.0597   25.9348  -75.5746 H         1 UNK         0.3020 
    107 H107      -74.4472   24.3811  -73.7516 H         1 UNK         0.1245 
    108 H108      -76.5141   23.6870  -72.4392 H         1 UNK         0.0781 
    109 H109      -77.3038   25.1461  -72.9528 H         1 UNK         0.0781 
    110 H110      -76.5546   27.0020  -69.7422 H         1 UNK         0.0836 
    111 H111      -77.7531   26.1193  -70.6402 H         1 UNK         0.0836 
    112 H112      -76.7851   23.2335  -74.7613 H         1 UNK         0.3022 
    113 H113      -75.7904   22.6072  -78.1198 H         1 UNK         0.0747 
    114 H114      -76.3543   20.3142  -77.3372 H         1 UNK         0.0793 
    115 H115      -74.7958   20.8405  -76.7223 H         1 UNK         0.0793 
    116 H116      -76.1911   20.8260  -75.6587 H         1 UNK         0.0793 
    117 H117      -77.9233   23.0841  -78.1079 H         1 UNK         0.3047 
    118 H118      -79.8909   23.9081  -77.3646 H         1 UNK         0.0822 
    119 H119      -81.7175   22.2288  -77.6505 H         1 UNK         0.0807 
    120 H120      -80.1910   21.5577  -78.1957 H         1 UNK         0.0807 
    121 H121      -80.8457   21.0774  -76.6374 H         1 UNK         0.0807 
    122 H122      -81.5436   22.9963  -75.2465 H         1 UNK         0.2946 
    123 H123      -82.3204   24.2930  -73.7332 H         1 UNK         0.1144 
    124 H124      -80.4183   23.6218  -72.2463 H         1 UNK         0.0793 
    125 H125      -81.5018   24.7526  -71.4532 H         1 UNK         0.0793 
    126 H126      -79.9484   25.3036  -72.0763 H         1 UNK         0.0793 
    127 H127      -81.8273   26.8617  -72.7841 H         1 UNK         0.2896 
@<TRIPOS>BOND
     1    1    2 1    
     2    1   67 1    
     3    1   68 1    
     4    1   69 1    
     5    2    3 2    
     6    2    4 am   BACKBONE|DICT|INTERRES
     7    4    5 1    
     8    4   70 1    
     9    5    6 1    
    10    5   65 1    
    11    5   71 1    
    12    6    7 1    
    13    6   72 1    
    14    6   73 1    
    15    7    8 1    
    16    8    9 1    
    17    8   74 1    
    18    8   75 1    
    19    9   10 ar   
    20    9   14 ar   
    21   10   11 ar   
    22   10   76 1    
    23   11   12 ar   
    24   11   48 1    
    25   12   13 ar   
    26   12   77 1    
    27   13   14 ar   
    28   13   15 1    
    29   14   78 1    
    30   15   16 1    
    31   15   79 1    
    32   15   80 1    
    33   16   17 1    
    34   17   18 1    
    35   17   81 1    
    36   17   82 1    
    37   18   19 1    
    38   18   22 1    
    39   18   83 1    
    40   19   20 am   BACKBONE|DICT|INTERRES
    41   19   21 2    
    42   20   84 1    
    43   20   85 1    
    44   22   23 am   BACKBONE|DICT|INTERRES
    45   22   86 1    
    46   23   24 2    
    47   23   25 1    
    48   25   26 1    
    49   25   27 1    
    50   25   87 1    
    51   26   88 1    
    52   26   89 1    
    53   26   90 1    
    54   27   28 am   BACKBONE|DICT|INTERRES
    55   27   91 1    
    56   28   29 2    
    57   28   30 1    
    58   30   31 1    
    59   30   32 1    
    60   30   92 1    
    61   31   93 1    
    62   31   94 1    
    63   31   95 1    
    64   32   33 am   BACKBONE|DICT|INTERRES
    65   32   96 1    
    66   33   34 2    
    67   33   35 1    
    68   35   36 1    
    69   35   37 1    
    70   35   97 1    
    71   36   98 1    
    72   36   99 1    
    73   36  100 1    
    74   37   38 am   BACKBONE|DICT|INTERRES
    75   37  101 1    
    76   38   39 2    
    77   38   40 1    
    78   40   41 1    
    79   40   42 1    
    80   40  102 1    
    81   41  103 1    
    82   41  104 1    
    83   41  105 1    
    84   42   43 am   BACKBONE|DICT|INTERRES
    85   42  106 1    
    86   43   44 2    
    87   43   45 1    
    88   45   46 1    
    89   45   49 1    
    90   45  107 1    
    91   46   47 1    
    92   46  108 1    
    93   46  109 1    
    94   47   48 1    
    95   48  110 1    
    96   48  111 1    
    97   49   50 am   BACKBONE|DICT|INTERRES
    98   49  112 1    
    99   50   51 2    
   100   50   52 1    
   101   52   53 1    
   102   52   54 1    
   103   52  113 1    
   104   53  114 1    
   105   53  115 1    
   106   53  116 1    
   107   54   55 am   BACKBONE|DICT|INTERRES
   108   54  117 1    
   109   55   56 2    
   110   55   57 1    
   111   57   58 1    
   112   57   59 1    
   113   57  118 1    
   114   58  119 1    
   115   58  120 1    
   116   58  121 1    
   117   59   60 am   BACKBONE|DICT|INTERRES
   118   59  122 1    
   119   60   61 2    
   120   60   62 1    
   121   62   63 1    
   122   62   64 1    
   123   62  123 1    
   124   63  124 1    
   125   63  125 1    
   126   63  126 1    
   127   64   65 am   BACKBONE|DICT|INTERRES
   128   64  127 1    
   129   65   66 2    
@<TRIPOS>SUBSTRUCTURE
     1 UNK         1 GROUP             0       ****    0 ROOT    
