@<TRIPOS>MOLECULE
3R135
127   129    1
SMALL
USER_CHARGES


@<TRIPOS>ATOM
      1 CA        -83.7164   23.7685  -72.8572 C.3       0 UNK        -0.1998 
      2 C         -83.2902   25.1394  -73.3601 C.2       0 UNK         0.4909 
      3 O         -83.2375   25.3587  -74.5711 O.2       0 UNK        -0.5240 
      4 N         -82.9899   26.0656  -72.4406 N.am      1 UNK        -0.4739 
      5 CA        -82.4657   27.4022  -72.7409 C.3       1 UNK         0.0864 
      6 C6        -82.6117   28.3774  -71.5415 C.3       11 UNK        -0.0881 
      7 S7        -81.9712   27.7499  -69.9487 S.3       11 UNK        -0.2682 
      8 C8        -80.6975   28.9893  -69.5158 C.3       11 UNK         0.0289 
      9 C9        -79.3538   28.8027  -70.2203 C.ar      11 UNK        -0.0687 
     10 C10       -78.8466   27.5290  -70.4950 C.ar      11 UNK        -0.0823 
     11 C11       -77.5978   27.3574  -71.0985 C.ar      11 UNK        -0.0830 
     12 C12       -76.8287   28.4902  -71.3970 C.ar      11 UNK        -0.1021 
     13 C13       -77.3190   29.7725  -71.1301 C.ar      11 UNK        -0.0753 
     14 C14       -78.5823   29.9214  -70.5484 C.ar      11 UNK        -0.0933 
     15 C15       -76.4768   30.9994  -71.4479 C.3       11 UNK         0.0166 
     16 S16       -76.6884   31.5305  -73.1792 S.3       11 UNK        -0.2615 
     17 C17       -75.0320   31.2303  -73.8871 C.3       11 UNK        -0.0865 
     18 CA        -74.9255   29.8653  -74.6358 C.3       10 UNK         0.0862 
     19 C         -75.1946   29.9493  -76.1697 C.2       10 UNK         0.5551 
     20 N         -74.7528   28.9739  -76.9540 N.am      10 UNK        -0.7319 
     21 O         -75.8087   30.8941  -76.6589 O.2       10 UNK        -0.5018 
     22 N         -73.6916   29.1435  -74.2803 N.am      10 UNK        -0.4509 
     23 C         -72.4430   29.5587  -74.5333 C.2       10 UNK         0.4899 
     24 O         -72.1628   30.5883  -75.1463 O.2       10 UNK        -0.4839 
     25 CA        -71.3168   28.6750  -73.9909 C.3       9 UNK         0.0222 
     26 CB        -71.4178   28.4953  -72.4605 C.3       9 UNK        -0.1966 
     27 N         -71.3095   27.3855  -74.6797 N.am      9 UNK        -0.4218 
     28 C         -70.2676   26.5422  -74.7041 C.2       9 UNK         0.5020 
     29 O         -69.1987   26.7503  -74.1280 O.2       9 UNK        -0.5274 
     30 CA        -70.4366   25.2516  -75.5169 C.3       8 UNK         0.0270 
     31 CB        -71.2307   24.2064  -74.7156 C.3       8 UNK        -0.1976 
     32 N         -71.1068   25.5149  -76.7903 N.am      8 UNK        -0.4313 
     33 C         -70.4816   25.7993  -77.9406 C.2       8 UNK         0.5041 
     34 O         -69.2548   25.8338  -78.0504 O.2       8 UNK        -0.5577 
     35 CA        -71.3439   26.1287  -79.1796 C.3       7 UNK         0.0284 
     36 CB        -70.9706   25.2417  -80.3865 C.3       7 UNK        -0.1958 
     37 N         -72.7963   26.1275  -78.9454 N.am      7 UNK        -0.4454 
     38 C         -73.5872   25.0866  -78.6495 C.2       7 UNK         0.5089 
     39 O         -73.2084   23.9172  -78.5696 O.2       7 UNK        -0.5125 
     40 CA        -75.0464   25.4325  -78.3131 C.3       6 UNK         0.0408 
     41 CB        -76.0134   24.7207  -79.2718 C.3       6 UNK        -0.1791 
     42 N         -75.3808   25.0904  -76.9274 N.am      6 UNK        -0.4762 
     43 C         -74.7551   25.5524  -75.8313 C.2       6 UNK         0.5007 
     44 O         -73.8098   26.3488  -75.8814 O.2       6 UNK        -0.5032 
     45 CA        -75.2709   25.0735  -74.4543 C.3       5 UNK         0.0783 
     46 C46       -75.1062   26.1815  -73.3825 C.3       11 UNK        -0.0857 
     47 S47       -75.3888   25.6232  -71.6717 S.3       11 UNK        -0.2512 
     48 C48       -77.1739   25.9288  -71.4419 C.3       11 UNK         0.0225 
     49 N         -76.6681   24.6572  -74.5709 N.am      5 UNK        -0.4615 
     50 C         -77.1598   23.4372  -74.3206 C.2       4 UNK         0.5053 
     51 O         -76.4700   22.4858  -73.9551 O.2       4 UNK        -0.5105 
     52 CA        -78.6774   23.2338  -74.5149 C.3       4 UNK         0.0263 
     53 CB        -79.3899   23.0444  -73.1652 C.3       4 UNK        -0.1981 
     54 N         -79.3152   24.3306  -75.2517 N.am      4 UNK        -0.4224 
     55 C         -79.1721   24.5199  -76.5728 C.2       3 UNK         0.4895 
     56 O         -78.5699   23.7347  -77.3047 O.2       3 UNK        -0.5091 
     57 CA        -79.7465   25.8106  -77.1856 C.3       3 UNK         0.0250 
     58 CB        -81.1083   25.5319  -77.8408 C.3       3 UNK        -0.1996 
     59 N         -79.8862   26.9197  -76.2388 N.am      3 UNK        -0.4254 
     60 C         -78.8860   27.5049  -75.5626 C.2       2 UNK         0.5004 
     61 O         -77.7042   27.1827  -75.6708 O.2       2 UNK        -0.5226 
     62 CA        -79.2787   28.5990  -74.5549 C.3       2 UNK         0.0269 
     63 CB        -79.2119   29.9806  -75.2216 C.3       2 UNK        -0.1926 
     64 N         -80.6102   28.4240  -73.9631 N.am      2 UNK        -0.4687 
     65 C         -81.0224   27.3439  -73.2837 C.2       1 UNK         0.5165 
     66 O         -80.3248   26.3405  -73.1082 O.2       1 UNK        -0.5079 
     67 H67       -83.6758   23.7030  -71.7701 H         1 UNK         0.0900 
     68 H68       -83.0627   22.9994  -73.2675 H         1 UNK         0.0900 
     69 H69       -84.7366   23.5534  -73.1735 H         1 UNK         0.0900 
     70 H70       -83.0148   25.8283  -71.4589 H         1 UNK         0.2959 
     71 H71       -83.0778   27.8019  -73.5530 H         1 UNK         0.1079 
     72 H72       -82.1584   29.3441  -71.7686 H         1 UNK         0.0837 
     73 H73       -83.6711   28.5915  -71.3922 H         1 UNK         0.0837 
     74 H74       -81.0955   29.9880  -69.7018 H         1 UNK         0.0685 
     75 H75       -80.5202   28.9291  -68.4414 H         1 UNK         0.0685 
     76 H76       -79.4369   26.6561  -70.2532 H         1 UNK         0.1434 
     77 H77       -75.8510   28.3917  -71.8424 H         1 UNK         0.1329 
     78 H78       -78.9567   30.9130  -70.3333 H         1 UNK         0.1335 
     79 H79       -76.7612   31.8266  -70.7957 H         1 UNK         0.0680 
     80 H80       -75.4303   30.7916  -71.2226 H         1 UNK         0.0680 
     81 H81       -74.2992   31.2935  -73.0822 H         1 UNK         0.1032 
     82 H82       -74.7765   32.0624  -74.5457 H         1 UNK         0.1032 
     83 H83       -75.7272   29.2259  -74.2675 H         1 UNK         0.0461 
     84 H84       -74.9340   29.0311  -77.9420 H         1 UNK         0.3453 
     85 H85       -74.3036   28.1601  -76.5546 H         1 UNK         0.3453 
     86 H86       -73.8181   28.2739  -73.7882 H         1 UNK         0.2984 
     87 H87       -70.3772   29.1866  -74.2114 H         1 UNK         0.0554 
     88 H88       -70.5195   28.0286  -72.0565 H         1 UNK         0.0847 
     89 H89       -72.2672   27.8762  -72.1717 H         1 UNK         0.0847 
     90 H90       -71.5279   29.4581  -71.9595 H         1 UNK         0.0847 
     91 H91       -72.1481   27.1435  -75.1997 H         1 UNK         0.3141 
     92 H92       -69.4434   24.8389  -75.7075 H         1 UNK         0.0743 
     93 H93       -72.2101   24.5773  -74.4165 H         1 UNK         0.0784 
     94 H94       -71.3778   23.2924  -75.2914 H         1 UNK         0.0784 
     95 H95       -70.6980   23.9331  -73.8038 H         1 UNK         0.0784 
     96 H96       -72.1191   25.5423  -76.7770 H         1 UNK         0.3213 
     97 H97       -71.0919   27.1570  -79.4439 H         1 UNK         0.0855 
     98 H98       -69.9203   25.3674  -80.6528 H         1 UNK         0.0814 
     99 H99       -71.5588   25.4998  -81.2670 H         1 UNK         0.0814 
    100 H100      -71.1234   24.1827  -80.1776 H         1 UNK         0.0814 
    101 H101      -73.2225   27.0440  -78.9544 H         1 UNK         0.3105 
    102 H102      -75.1942   26.5075  -78.4299 H         1 UNK         0.0547 
    103 H103      -75.7552   24.9243  -80.3119 H         1 UNK         0.0837 
    104 H104      -75.9941   23.6386  -79.1363 H         1 UNK         0.0837 
    105 H105      -77.0383   25.0595  -79.1244 H         1 UNK         0.0837 
    106 H106      -76.1446   24.4409  -76.8000 H         1 UNK         0.3020 
    107 H107      -74.6462   24.2226  -74.1747 H         1 UNK         0.1245 
    108 H108      -75.7664   27.0172  -73.6126 H         1 UNK         0.0781 
    109 H109      -74.0867   26.5660  -73.3863 H         1 UNK         0.0781 
    110 H110      -77.5119   25.2576  -70.6509 H         1 UNK         0.0836 
    111 H111      -77.7137   25.6320  -72.3385 H         1 UNK         0.0836 
    112 H112      -77.2926   25.3847  -74.9064 H         1 UNK         0.3022 
    113 H113      -78.8051   22.3141  -75.0899 H         1 UNK         0.0747 
    114 H114      -80.4477   22.8228  -73.3053 H         1 UNK         0.0793 
    115 H115      -78.9566   22.2130  -72.6076 H         1 UNK         0.0793 
    116 H116      -79.3174   23.9305  -72.5355 H         1 UNK         0.0793 
    117 H117      -79.8032   25.0282  -74.6984 H         1 UNK         0.3047 
    118 H118      -79.0509   26.1340  -77.9627 H         1 UNK         0.0822 
    119 H119      -81.4845   26.4099  -78.3663 H         1 UNK         0.0807 
    120 H120      -81.8560   25.2339  -77.1042 H         1 UNK         0.0807 
    121 H121      -81.0325   24.7265  -78.5728 H         1 UNK         0.0807 
    122 H122      -80.8259   27.2429  -76.0601 H         1 UNK         0.2946 
    123 H123      -78.5496   28.5680  -73.7425 H         1 UNK         0.1144 
    124 H124      -79.3949   30.7781  -74.5013 H         1 UNK         0.0793 
    125 H125      -79.9404   30.0790  -76.0271 H         1 UNK         0.0793 
    126 H126      -78.2261   30.1578  -75.6516 H         1 UNK         0.0793 
    127 H127      -81.2446   29.2031  -74.0654 H         1 UNK         0.2896 
@<TRIPOS>BOND
     1    1    2 1    
     2    1   67 1    
     3    1   68 1    
     4    1   69 1    
     5    2    3 2    
     6    2    4 am   BACKBONE|DICT|INTERRES
     7    4    5 1    
     8    4   70 1    
     9    5    6 1    
    10    5   65 1    
    11    5   71 1    
    12    6    7 1    
    13    6   72 1    
    14    6   73 1    
    15    7    8 1    
    16    8    9 1    
    17    8   74 1    
    18    8   75 1    
    19    9   10 ar   
    20    9   14 ar   
    21   10   11 ar   
    22   10   76 1    
    23   11   12 ar   
    24   11   48 1    
    25   12   13 ar   
    26   12   77 1    
    27   13   14 ar   
    28   13   15 1    
    29   14   78 1    
    30   15   16 1    
    31   15   79 1    
    32   15   80 1    
    33   16   17 1    
    34   17   18 1    
    35   17   81 1    
    36   17   82 1    
    37   18   19 1    
    38   18   22 1    
    39   18   83 1    
    40   19   20 am   BACKBONE|DICT|INTERRES
    41   19   21 2    
    42   20   84 1    
    43   20   85 1    
    44   22   23 am   BACKBONE|DICT|INTERRES
    45   22   86 1    
    46   23   24 2    
    47   23   25 1    
    48   25   26 1    
    49   25   27 1    
    50   25   87 1    
    51   26   88 1    
    52   26   89 1    
    53   26   90 1    
    54   27   28 am   BACKBONE|DICT|INTERRES
    55   27   91 1    
    56   28   29 2    
    57   28   30 1    
    58   30   31 1    
    59   30   32 1    
    60   30   92 1    
    61   31   93 1    
    62   31   94 1    
    63   31   95 1    
    64   32   33 am   BACKBONE|DICT|INTERRES
    65   32   96 1    
    66   33   34 2    
    67   33   35 1    
    68   35   36 1    
    69   35   37 1    
    70   35   97 1    
    71   36   98 1    
    72   36   99 1    
    73   36  100 1    
    74   37   38 am   BACKBONE|DICT|INTERRES
    75   37  101 1    
    76   38   39 2    
    77   38   40 1    
    78   40   41 1    
    79   40   42 1    
    80   40  102 1    
    81   41  103 1    
    82   41  104 1    
    83   41  105 1    
    84   42   43 am   BACKBONE|DICT|INTERRES
    85   42  106 1    
    86   43   44 2    
    87   43   45 1    
    88   45   46 1    
    89   45   49 1    
    90   45  107 1    
    91   46   47 1    
    92   46  108 1    
    93   46  109 1    
    94   47   48 1    
    95   48  110 1    
    96   48  111 1    
    97   49   50 am   BACKBONE|DICT|INTERRES
    98   49  112 1    
    99   50   51 2    
   100   50   52 1    
   101   52   53 1    
   102   52   54 1    
   103   52  113 1    
   104   53  114 1    
   105   53  115 1    
   106   53  116 1    
   107   54   55 am   BACKBONE|DICT|INTERRES
   108   54  117 1    
   109   55   56 2    
   110   55   57 1    
   111   57   58 1    
   112   57   59 1    
   113   57  118 1    
   114   58  119 1    
   115   58  120 1    
   116   58  121 1    
   117   59   60 am   BACKBONE|DICT|INTERRES
   118   59  122 1    
   119   60   61 2    
   120   60   62 1    
   121   62   63 1    
   122   62   64 1    
   123   62  123 1    
   124   63  124 1    
   125   63  125 1    
   126   63  126 1    
   127   64   65 am   BACKBONE|DICT|INTERRES
   128   64  127 1    
   129   65   66 2    
@<TRIPOS>SUBSTRUCTURE
     1 UNK         1 GROUP             0       ****    0 ROOT    
