@<TRIPOS>MOLECULE
3R135
127   129    1
SMALL
USER_CHARGES


@<TRIPOS>ATOM
      1 CA        -78.2295   21.3356  -72.1380 C.3       0 UNK        -0.1998 
      2 C         -79.0695   22.5338  -72.5504 C.2       0 UNK         0.4909 
      3 O         -79.5503   22.5829  -73.6839 O.2       0 UNK        -0.5240 
      4 N         -79.2849   23.4840  -71.6290 N.am      1 UNK        -0.4739 
      5 CA        -79.9842   24.7744  -71.7965 C.3       1 UNK         0.0864 
      6 C6        -79.2594   25.7376  -72.7783 C.3       11 UNK        -0.0881 
      7 S7        -77.5524   26.1423  -72.2765 S.3       11 UNK        -0.2682 
      8 C8        -77.8156   27.5968  -71.2053 C.3       11 UNK         0.0289 
      9 C9        -77.6677   28.9417  -71.9165 C.ar      11 UNK        -0.0687 
     10 C10       -78.3316   29.2105  -73.1200 C.ar      11 UNK        -0.0823 
     11 C11       -78.2348   30.4651  -73.7262 C.ar      11 UNK        -0.0830 
     12 C12       -77.4716   31.4640  -73.1189 C.ar      11 UNK        -0.1021 
     13 C13       -76.8105   31.2183  -71.9135 C.ar      11 UNK        -0.0753 
     14 C14       -76.9052   29.9547  -71.3215 C.ar      11 UNK        -0.0933 
     15 C15       -76.0388   32.3422  -71.2385 C.3       11 UNK         0.0166 
     16 S16       -74.4397   32.6466  -72.0471 S.3       11 UNK        -0.2615 
     17 C17       -73.3764   31.4461  -71.1813 C.3       11 UNK        -0.0865 
     18 CA        -72.0534   31.1885  -71.9472 C.3       10 UNK         0.0862 
     19 C         -71.0071   30.4720  -71.0411 C.2       10 UNK         0.5551 
     20 N         -70.4857   29.3040  -71.3946 N.am      10 UNK        -0.7319 
     21 O         -70.6511   30.9984  -69.9895 O.2       10 UNK        -0.5018 
     22 N         -72.3041   30.5337  -73.2415 N.am      10 UNK        -0.4509 
     23 C         -71.4778   30.5719  -74.2937 C.2       10 UNK         0.4899 
     24 O         -70.4448   31.2433  -74.3257 O.2       10 UNK        -0.4839 
     25 CA        -71.8703   29.6990  -75.5063 C.3       9 UNK         0.0222 
     26 CB        -70.6899   29.4576  -76.4698 C.3       9 UNK        -0.1966 
     27 N         -72.4913   28.4153  -75.1485 N.am      9 UNK        -0.4218 
     28 C         -72.0016   27.4796  -74.3182 C.2       9 UNK         0.5020 
     29 O         -70.9630   27.6034  -73.6683 O.2       9 UNK        -0.5274 
     30 CA        -72.8075   26.1785  -74.1944 C.3       8 UNK         0.0270 
     31 CB        -74.0914   26.4030  -73.3790 C.3       8 UNK        -0.1976 
     32 N         -73.1394   25.6042  -75.4985 N.am      8 UNK        -0.4313 
     33 C         -72.2439   25.1298  -76.3779 C.2       8 UNK         0.5041 
     34 O         -71.0335   25.0596  -76.1607 O.2       8 UNK        -0.5577 
     35 CA        -72.7868   24.6587  -77.7351 C.3       7 UNK         0.0284 
     36 CB        -73.3353   23.2275  -77.6372 C.3       7 UNK        -0.1958 
     37 N         -73.8259   25.5582  -78.2378 N.am      7 UNK        -0.4454 
     38 C         -73.5752   26.7242  -78.8492 C.2       7 UNK         0.5089 
     39 O         -72.4442   27.1268  -79.1218 O.2       7 UNK        -0.5125 
     40 CA        -74.7888   27.5930  -79.2254 C.3       6 UNK         0.0408 
     41 CB        -75.2169   27.3164  -80.6751 C.3       6 UNK        -0.1791 
     42 N         -75.9420   27.4160  -78.3381 N.am      6 UNK        -0.4762 
     43 C         -75.9756   27.7893  -77.0500 C.2       6 UNK         0.5007 
     44 O         -75.0164   28.2816  -76.4535 O.2       6 UNK        -0.5032 
     45 CA        -77.2916   27.5114  -76.2911 C.3       5 UNK         0.0783 
     46 C46       -78.4174   28.5103  -76.6679 C.3       11 UNK        -0.0857 
     47 S47       -78.0003   30.2801  -76.4763 S.3       11 UNK        -0.2512 
     48 C48       -78.9784   30.7583  -75.0196 C.3       11 UNK         0.0225 
     49 N         -77.7602   26.1327  -76.4832 N.am      5 UNK        -0.4615 
     50 C         -77.0712   25.0114  -76.2397 C.2       4 UNK         0.5053 
     51 O         -75.9091   25.0092  -75.8323 O.2       4 UNK        -0.5105 
     52 CA        -77.7764   23.6709  -76.5376 C.3       4 UNK         0.0263 
     53 CB        -77.0971   22.4902  -75.8195 C.3       4 UNK        -0.1981 
     54 N         -79.2111   23.6478  -76.2194 N.am      4 UNK        -0.4224 
     55 C         -80.1825   24.1673  -76.9836 C.2       3 UNK         0.4895 
     56 O         -79.9497   24.8929  -77.9511 O.2       3 UNK        -0.5091 
     57 CA        -81.6470   23.8283  -76.6591 C.3       3 UNK         0.0250 
     58 CB        -82.1245   22.6669  -77.5536 C.3       3 UNK        -0.1996 
     59 N         -81.9053   23.5174  -75.2482 N.am      3 UNK        -0.4254 
     60 C         -83.1171   23.6090  -74.6723 C.2       2 UNK         0.5004 
     61 O         -84.1314   23.9719  -75.2697 O.2       2 UNK        -0.5226 
     62 CA        -83.2340   23.2412  -73.1795 C.3       2 UNK         0.0269 
     63 CB        -83.6511   21.7705  -73.0183 C.3       2 UNK        -0.1926 
     64 N         -81.9834   23.4669  -72.4582 N.am      2 UNK        -0.4687 
     65 C         -81.4818   24.6756  -72.1787 C.2       1 UNK         0.5165 
     66 O         -82.1526   25.7067  -72.2481 O.2       1 UNK        -0.5079 
     67 H67       -77.9348   21.3854  -71.0901 H         1 UNK         0.0900 
     68 H68       -77.3249   21.2852  -72.7427 H         1 UNK         0.0900 
     69 H69       -78.7917   20.4147  -72.2896 H         1 UNK         0.0900 
     70 H70       -78.8838   23.3515  -70.7107 H         1 UNK         0.2959 
     71 H71       -79.9779   25.2413  -70.8104 H         1 UNK         0.1079 
     72 H72       -79.2223   25.3080  -73.7803 H         1 UNK         0.0837 
     73 H73       -79.8227   26.6647  -72.8748 H         1 UNK         0.0837 
     74 H74       -78.8013   27.5453  -70.7417 H         1 UNK         0.0685 
     75 H75       -77.0963   27.5284  -70.3878 H         1 UNK         0.0685 
     76 H76       -78.9322   28.4524  -73.5946 H         1 UNK         0.1434 
     77 H77       -77.3997   32.4410  -73.5777 H         1 UNK         0.1329 
     78 H78       -76.4047   29.7691  -70.3810 H         1 UNK         0.1335 
     79 H79       -75.8869   32.1332  -70.1783 H         1 UNK         0.0680 
     80 H80       -76.6305   33.2578  -71.2831 H         1 UNK         0.0680 
     81 H81       -73.1808   31.8485  -70.1852 H         1 UNK         0.1032 
     82 H82       -73.9181   30.5105  -71.0323 H         1 UNK         0.1032 
     83 H83       -71.6129   32.1647  -72.1600 H         1 UNK         0.0461 
     84 H84       -69.8076   28.8701  -70.7892 H         1 UNK         0.3453 
     85 H85       -70.7407   28.8469  -72.2659 H         1 UNK         0.3453 
     86 H86       -73.1328   29.9614  -73.3003 H         1 UNK         0.2984 
     87 H87       -72.6316   30.2603  -76.0498 H         1 UNK         0.0554 
     88 H88       -70.9986   28.8685  -77.3338 H         1 UNK         0.0847 
     89 H89       -69.8730   28.9275  -75.9788 H         1 UNK         0.0847 
     90 H90       -70.2895   30.3990  -76.8479 H         1 UNK         0.0847 
     91 H91       -73.3836   28.2294  -75.6065 H         1 UNK         0.3141 
     92 H92       -72.1898   25.4536  -73.6601 H         1 UNK         0.0743 
     93 H93       -73.8668   26.8255  -72.3988 H         1 UNK         0.0784 
     94 H94       -74.7805   27.0848  -73.8790 H         1 UNK         0.0784 
     95 H95       -74.6207   25.4643  -73.2130 H         1 UNK         0.0784 
     96 H96       -74.1296   25.5488  -75.7295 H         1 UNK         0.3213 
     97 H97       -71.9564   24.6505  -78.4452 H         1 UNK         0.0855 
     98 H98       -73.7287   22.8827  -78.5935 H         1 UNK         0.0814 
     99 H99       -74.1296   23.1540  -76.8967 H         1 UNK         0.0814 
    100 H100      -72.5499   22.5319  -77.3387 H         1 UNK         0.0814 
    101 H101      -74.7839   25.3260  -78.0194 H         1 UNK         0.3105 
    102 H102      -74.4750   28.6370  -79.1579 H         1 UNK         0.0547 
    103 H103      -75.5650   26.2911  -80.8065 H         1 UNK         0.0837 
    104 H104      -76.0171   27.9870  -80.9886 H         1 UNK         0.0837 
    105 H105      -74.3836   27.4674  -81.3630 H         1 UNK         0.0837 
    106 H106      -76.7708   27.0024  -78.7411 H         1 UNK         0.3020 
    107 H107      -77.0692   27.6266  -75.2280 H         1 UNK         0.1245 
    108 H108      -79.3112   28.2880  -76.0836 H         1 UNK         0.0781 
    109 H109      -78.7119   28.3622  -77.7086 H         1 UNK         0.0781 
    110 H110      -79.1943   31.8258  -75.0860 H         1 UNK         0.0836 
    111 H111      -79.9491   30.2606  -75.0281 H         1 UNK         0.0836 
    112 H112      -78.6812   26.0166  -76.8919 H         1 UNK         0.3022 
    113 H113      -77.6717   23.4995  -77.6109 H         1 UNK         0.0747 
    114 H114      -76.0965   22.3137  -76.2098 H         1 UNK         0.0793 
    115 H115      -77.6565   21.5635  -75.9486 H         1 UNK         0.0793 
    116 H116      -76.9978   22.6782  -74.7506 H         1 UNK         0.0793 
    117 H117      -79.4489   23.1235  -75.3798 H         1 UNK         0.3047 
    118 H118      -82.2236   24.7189  -76.9194 H         1 UNK         0.0822 
    119 H119      -81.9204   22.8707  -78.6058 H         1 UNK         0.0807 
    120 H120      -83.1986   22.5053  -77.4634 H         1 UNK         0.0807 
    121 H121      -81.6228   21.7329  -77.2978 H         1 UNK         0.0807 
    122 H122      -81.1196   23.2132  -74.6813 H         1 UNK         0.2946 
    123 H123      -84.0109   23.8727  -72.7418 H         1 UNK         0.1144 
    124 H124      -83.7929   21.5112  -71.9690 H         1 UNK         0.0793 
    125 H125      -82.9067   21.0910  -73.4355 H         1 UNK         0.0793 
    126 H126      -84.5946   21.5750  -73.5300 H         1 UNK         0.0793 
    127 H127      -81.3452   22.6848  -72.4016 H         1 UNK         0.2896 
@<TRIPOS>BOND
     1    1    2 1    
     2    1   67 1    
     3    1   68 1    
     4    1   69 1    
     5    2    3 2    
     6    2    4 am   BACKBONE|DICT|INTERRES
     7    4    5 1    
     8    4   70 1    
     9    5    6 1    
    10    5   65 1    
    11    5   71 1    
    12    6    7 1    
    13    6   72 1    
    14    6   73 1    
    15    7    8 1    
    16    8    9 1    
    17    8   74 1    
    18    8   75 1    
    19    9   10 ar   
    20    9   14 ar   
    21   10   11 ar   
    22   10   76 1    
    23   11   12 ar   
    24   11   48 1    
    25   12   13 ar   
    26   12   77 1    
    27   13   14 ar   
    28   13   15 1    
    29   14   78 1    
    30   15   16 1    
    31   15   79 1    
    32   15   80 1    
    33   16   17 1    
    34   17   18 1    
    35   17   81 1    
    36   17   82 1    
    37   18   19 1    
    38   18   22 1    
    39   18   83 1    
    40   19   20 am   BACKBONE|DICT|INTERRES
    41   19   21 2    
    42   20   84 1    
    43   20   85 1    
    44   22   23 am   BACKBONE|DICT|INTERRES
    45   22   86 1    
    46   23   24 2    
    47   23   25 1    
    48   25   26 1    
    49   25   27 1    
    50   25   87 1    
    51   26   88 1    
    52   26   89 1    
    53   26   90 1    
    54   27   28 am   BACKBONE|DICT|INTERRES
    55   27   91 1    
    56   28   29 2    
    57   28   30 1    
    58   30   31 1    
    59   30   32 1    
    60   30   92 1    
    61   31   93 1    
    62   31   94 1    
    63   31   95 1    
    64   32   33 am   BACKBONE|DICT|INTERRES
    65   32   96 1    
    66   33   34 2    
    67   33   35 1    
    68   35   36 1    
    69   35   37 1    
    70   35   97 1    
    71   36   98 1    
    72   36   99 1    
    73   36  100 1    
    74   37   38 am   BACKBONE|DICT|INTERRES
    75   37  101 1    
    76   38   39 2    
    77   38   40 1    
    78   40   41 1    
    79   40   42 1    
    80   40  102 1    
    81   41  103 1    
    82   41  104 1    
    83   41  105 1    
    84   42   43 am   BACKBONE|DICT|INTERRES
    85   42  106 1    
    86   43   44 2    
    87   43   45 1    
    88   45   46 1    
    89   45   49 1    
    90   45  107 1    
    91   46   47 1    
    92   46  108 1    
    93   46  109 1    
    94   47   48 1    
    95   48  110 1    
    96   48  111 1    
    97   49   50 am   BACKBONE|DICT|INTERRES
    98   49  112 1    
    99   50   51 2    
   100   50   52 1    
   101   52   53 1    
   102   52   54 1    
   103   52  113 1    
   104   53  114 1    
   105   53  115 1    
   106   53  116 1    
   107   54   55 am   BACKBONE|DICT|INTERRES
   108   54  117 1    
   109   55   56 2    
   110   55   57 1    
   111   57   58 1    
   112   57   59 1    
   113   57  118 1    
   114   58  119 1    
   115   58  120 1    
   116   58  121 1    
   117   59   60 am   BACKBONE|DICT|INTERRES
   118   59  122 1    
   119   60   61 2    
   120   60   62 1    
   121   62   63 1    
   122   62   64 1    
   123   62  123 1    
   124   63  124 1    
   125   63  125 1    
   126   63  126 1    
   127   64   65 am   BACKBONE|DICT|INTERRES
   128   64  127 1    
   129   65   66 2    
@<TRIPOS>SUBSTRUCTURE
     1 UNK         1 GROUP             0       ****    0 ROOT    
