@<TRIPOS>MOLECULE
3R135
127   129    1
SMALL
USER_CHARGES


@<TRIPOS>ATOM
      1 CA        -78.2586   22.7611  -77.5878 C.3       0 UNK        -0.1998 
      2 C         -78.5497   22.2644  -76.1796 C.2       0 UNK         0.4909 
      3 O         -79.1480   21.2008  -76.0209 O.2       0 UNK        -0.5240 
      4 N         -78.1327   23.0252  -75.1601 N.am      1 UNK        -0.4739 
      5 CA        -78.3638   22.7246  -73.7453 C.3       1 UNK         0.0864 
      6 C6        -77.2291   23.2462  -72.8202 C.3       11 UNK        -0.0881 
      7 S7        -76.7795   25.0105  -73.0182 S.3       11 UNK        -0.2682 
      8 C8        -77.4042   25.7065  -71.4552 C.3       11 UNK         0.0289 
      9 C9        -77.0614   27.1826  -71.3307 C.ar      11 UNK        -0.0687 
     10 C10       -77.8581   28.1511  -71.9496 C.ar      11 UNK        -0.0823 
     11 C11       -77.5234   29.5083  -71.8643 C.ar      11 UNK        -0.0830 
     12 C12       -76.4107   29.8918  -71.1098 C.ar      11 UNK        -0.1021 
     13 C13       -75.6200   28.9352  -70.4692 C.ar      11 UNK        -0.0753 
     14 C14       -75.9462   27.5818  -70.5893 C.ar      11 UNK        -0.0933 
     15 C15       -74.4228   29.3596  -69.6333 C.3       11 UNK         0.0166 
     16 S16       -72.9123   29.4964  -70.6368 S.3       11 UNK        -0.2615 
     17 C17       -73.0730   31.1599  -71.3727 C.3       11 UNK        -0.0865 
     18 CA        -73.4050   31.1585  -72.8897 C.3       10 UNK         0.0862 
     19 C         -73.6102   32.6253  -73.3698 C.2       10 UNK         0.5551 
     20 N         -72.6544   33.2361  -74.0594 N.am      10 UNK        -0.7319 
     21 O         -74.6518   33.2172  -73.0988 O.2       10 UNK        -0.5018 
     22 N         -72.4413   30.3499  -73.6592 N.am      10 UNK        -0.4509 
     23 C         -72.4711   30.1173  -74.9789 C.2       10 UNK         0.4899 
     24 O         -73.2860   30.6166  -75.7546 O.2       10 UNK        -0.4839 
     25 CA        -71.4324   29.1249  -75.5303 C.3       9 UNK         0.0222 
     26 CB        -69.9810   29.6014  -75.3149 C.3       9 UNK        -0.1966 
     27 N         -71.6696   27.7655  -75.0324 N.am      9 UNK        -0.4218 
     28 C         -71.5361   27.2958  -73.7822 C.2       9 UNK         0.5020 
     29 O         -70.9502   27.9056  -72.8873 O.2       9 UNK        -0.5274 
     30 CA        -72.1948   25.9408  -73.4574 C.3       8 UNK         0.0270 
     31 CB        -73.1181   26.0673  -72.2334 C.3       8 UNK        -0.1976 
     32 N         -72.9975   25.4489  -74.5789 N.am      8 UNK        -0.4313 
     33 C         -72.7123   24.3728  -75.3230 C.2       8 UNK         0.5041 
     34 O         -71.7644   23.6173  -75.1045 O.2       8 UNK        -0.5577 
     35 CA        -73.6223   24.0983  -76.5365 C.3       7 UNK         0.0284 
     36 CB        -74.7278   23.1023  -76.1572 C.3       7 UNK        -0.1958 
     37 N         -74.2294   25.3055  -77.1094 N.am      7 UNK        -0.4454 
     38 C         -73.5441   26.3242  -77.6484 C.2       7 UNK         0.5089 
     39 O         -72.3190   26.3377  -77.7617 O.2       7 UNK        -0.5125 
     40 CA        -74.3412   27.5670  -78.0817 C.3       6 UNK         0.0408 
     41 CB        -74.6573   27.4956  -79.5838 C.3       6 UNK        -0.1791 
     42 N         -75.5842   27.8113  -77.3417 N.am      6 UNK        -0.4762 
     43 C         -75.7296   27.9072  -76.0095 C.2       6 UNK         0.5007 
     44 O         -74.8276   27.6788  -75.2038 O.2       6 UNK        -0.5032 
     45 CA        -77.1303   28.2876  -75.4913 C.3       5 UNK         0.0783 
     46 C46       -77.1800   29.7705  -75.0484 C.3       11 UNK        -0.0857 
     47 S47       -78.7937   30.1764  -74.2916 S.3       11 UNK        -0.2512 
     48 C48       -78.3529   30.5798  -72.5666 C.3       11 UNK         0.0225 
     49 N         -78.1832   27.9752  -76.4694 N.am      5 UNK        -0.4615 
     50 C         -78.6710   26.7478  -76.6615 C.2       4 UNK         0.5053 
     51 O         -78.2773   25.7538  -76.0457 O.2       4 UNK        -0.5105 
     52 CA        -79.7750   26.5913  -77.7121 C.3       4 UNK         0.0263 
     53 CB        -79.1907   26.2631  -79.0969 C.3       4 UNK        -0.1981 
     54 N         -80.6266   25.5100  -77.2421 N.am      4 UNK        -0.4224 
     55 C         -81.9189   25.3091  -77.5229 C.2       3 UNK         0.4895 
     56 O         -82.5429   25.9189  -78.3914 O.2       3 UNK        -0.5091 
     57 CA        -82.6459   24.2803  -76.6330 C.3       3 UNK         0.0250 
     58 CB        -82.5702   22.8735  -77.2472 C.3       3 UNK        -0.1996 
     59 N         -82.0841   24.2558  -75.2768 N.am      3 UNK        -0.4254 
     60 C         -82.2041   25.2599  -74.3951 C.2       2 UNK         0.5004 
     61 O         -83.0037   26.1867  -74.5273 O.2       2 UNK        -0.5226 
     62 CA        -81.2112   25.3024  -73.2221 C.3       2 UNK         0.0269 
     63 CB        -81.8830   24.9652  -71.8757 C.3       2 UNK        -0.1926 
     64 N         -79.9809   24.5305  -73.4626 N.am      2 UNK        -0.4687 
     65 C         -79.7637   23.2136  -73.3343 C.2       1 UNK         0.5165 
     66 O         -80.6167   22.4003  -72.9811 O.2       1 UNK        -0.5079 
     67 H67       -77.6272   23.6485  -77.5831 H         1 UNK         0.0900 
     68 H68       -77.7449   21.9879  -78.1582 H         1 UNK         0.0900 
     69 H69       -79.1865   23.0040  -78.1039 H         1 UNK         0.0900 
     70 H70       -77.7395   23.9413  -75.3538 H         1 UNK         0.2959 
     71 H71       -78.3761   21.6382  -73.6269 H         1 UNK         0.1079 
     72 H72       -76.3249   22.6701  -73.0224 H         1 UNK         0.0837 
     73 H73       -77.4674   23.0382  -71.7755 H         1 UNK         0.0837 
     74 H74       -76.9759   25.1516  -70.6191 H         1 UNK         0.0685 
     75 H75       -78.4843   25.5722  -71.3908 H         1 UNK         0.0685 
     76 H76       -78.7249   27.8457  -72.5188 H         1 UNK         0.1434 
     77 H77       -76.1552   30.9389  -71.0221 H         1 UNK         0.1329 
     78 H78       -75.3286   26.8374  -70.1056 H         1 UNK         0.1335 
     79 H79       -74.6250   30.3016  -69.1216 H         1 UNK         0.0680 
     80 H80       -74.2468   28.6248  -68.8462 H         1 UNK         0.0680 
     81 H81       -72.1305   31.6835  -71.2014 H         1 UNK         0.1032 
     82 H82       -73.8242   31.7241  -70.8172 H         1 UNK         0.1032 
     83 H83       -74.3685   30.6627  -73.0162 H         1 UNK         0.0461 
     84 H84       -71.8034   32.7492  -74.2895 H         1 UNK         0.3453 
     85 H85       -72.7942   34.1856  -74.3665 H         1 UNK         0.3453 
     86 H86       -71.7798   29.8124  -73.1089 H         1 UNK         0.2984 
     87 H87       -71.5910   29.0680  -76.6083 H         1 UNK         0.0554 
     88 H88       -69.8172   30.5652  -75.7981 H         1 UNK         0.0847 
     89 H89       -69.2681   28.8987  -75.7459 H         1 UNK         0.0847 
     90 H90       -69.7304   29.7253  -74.2615 H         1 UNK         0.0847 
     91 H91       -72.1285   27.1558  -75.6966 H         1 UNK         0.3141 
     92 H92       -71.3927   25.2409  -73.2161 H         1 UNK         0.0743 
     93 H93       -72.5637   26.3839  -71.3491 H         1 UNK         0.0784 
     94 H94       -73.9037   26.8041  -72.4077 H         1 UNK         0.0784 
     95 H95       -73.5976   25.1180  -71.9945 H         1 UNK         0.0784 
     96 H96       -73.7941   26.0299  -74.8314 H         1 UNK         0.3213 
     97 H97       -73.0012   23.6425  -77.3108 H         1 UNK         0.0855 
     98 H98       -75.3987   23.5193  -75.4066 H         1 UNK         0.0814 
     99 H99       -74.3040   22.1877  -75.7402 H         1 UNK         0.0814 
    100 H100      -75.3190   22.8144  -77.0257 H         1 UNK         0.0814 
    101 H101      -75.2322   25.3975  -77.0351 H         1 UNK         0.3105 
    102 H102      -73.6994   28.4335  -77.9111 H         1 UNK         0.0547 
    103 H103      -73.7492   27.3375  -80.1678 H         1 UNK         0.0837 
    104 H104      -75.3393   26.6762  -79.8148 H         1 UNK         0.0837 
    105 H105      -75.1093   28.4211  -79.9407 H         1 UNK         0.0837 
    106 H106      -76.4018   27.9975  -77.9034 H         1 UNK         0.3020 
    107 H107      -77.2911   27.6685  -74.6065 H         1 UNK         0.1245 
    108 H108      -77.0204   30.4343  -75.9001 H         1 UNK         0.0781 
    109 H109      -76.3776   29.9905  -74.3415 H         1 UNK         0.0781 
    110 H110      -79.2698   30.7411  -71.9986 H         1 UNK         0.0836 
    111 H111      -77.8221   31.5335  -72.5696 H         1 UNK         0.0836 
    112 H112      -78.5719   28.7556  -76.9794 H         1 UNK         0.3022 
    113 H113      -80.3592   27.5127  -77.7612 H         1 UNK         0.0747 
    114 H114      -79.9798   26.1129  -79.8339 H         1 UNK         0.0793 
    115 H115      -78.5781   25.3619  -79.0772 H         1 UNK         0.0793 
    116 H116      -78.5621   27.0773  -79.4589 H         1 UNK         0.0793 
    117 H117      -80.2022   24.9770  -76.4945 H         1 UNK         0.3047 
    118 H118      -83.6958   24.5744  -76.5694 H         1 UNK         0.0822 
    119 H119      -83.1373   22.1535  -76.6568 H         1 UNK         0.0807 
    120 H120      -81.5438   22.5129  -77.3173 H         1 UNK         0.0807 
    121 H121      -82.9885   22.8657  -78.2547 H         1 UNK         0.0807 
    122 H122      -81.4503   23.5021  -75.0511 H         1 UNK         0.2946 
    123 H123      -80.8825   26.3413  -73.1581 H         1 UNK         0.1144 
    124 H124      -82.6757   25.6803  -71.6524 H         1 UNK         0.0793 
    125 H125      -81.1695   25.0056  -71.0528 H         1 UNK         0.0793 
    126 H126      -82.3405   23.9759  -71.8799 H         1 UNK         0.0793 
    127 H127      -79.1962   25.0748  -73.8021 H         1 UNK         0.2896 
@<TRIPOS>BOND
     1    1    2 1    
     2    1   67 1    
     3    1   68 1    
     4    1   69 1    
     5    2    3 2    
     6    2    4 am   BACKBONE|DICT|INTERRES
     7    4    5 1    
     8    4   70 1    
     9    5    6 1    
    10    5   65 1    
    11    5   71 1    
    12    6    7 1    
    13    6   72 1    
    14    6   73 1    
    15    7    8 1    
    16    8    9 1    
    17    8   74 1    
    18    8   75 1    
    19    9   10 ar   
    20    9   14 ar   
    21   10   11 ar   
    22   10   76 1    
    23   11   12 ar   
    24   11   48 1    
    25   12   13 ar   
    26   12   77 1    
    27   13   14 ar   
    28   13   15 1    
    29   14   78 1    
    30   15   16 1    
    31   15   79 1    
    32   15   80 1    
    33   16   17 1    
    34   17   18 1    
    35   17   81 1    
    36   17   82 1    
    37   18   19 1    
    38   18   22 1    
    39   18   83 1    
    40   19   20 am   BACKBONE|DICT|INTERRES
    41   19   21 2    
    42   20   84 1    
    43   20   85 1    
    44   22   23 am   BACKBONE|DICT|INTERRES
    45   22   86 1    
    46   23   24 2    
    47   23   25 1    
    48   25   26 1    
    49   25   27 1    
    50   25   87 1    
    51   26   88 1    
    52   26   89 1    
    53   26   90 1    
    54   27   28 am   BACKBONE|DICT|INTERRES
    55   27   91 1    
    56   28   29 2    
    57   28   30 1    
    58   30   31 1    
    59   30   32 1    
    60   30   92 1    
    61   31   93 1    
    62   31   94 1    
    63   31   95 1    
    64   32   33 am   BACKBONE|DICT|INTERRES
    65   32   96 1    
    66   33   34 2    
    67   33   35 1    
    68   35   36 1    
    69   35   37 1    
    70   35   97 1    
    71   36   98 1    
    72   36   99 1    
    73   36  100 1    
    74   37   38 am   BACKBONE|DICT|INTERRES
    75   37  101 1    
    76   38   39 2    
    77   38   40 1    
    78   40   41 1    
    79   40   42 1    
    80   40  102 1    
    81   41  103 1    
    82   41  104 1    
    83   41  105 1    
    84   42   43 am   BACKBONE|DICT|INTERRES
    85   42  106 1    
    86   43   44 2    
    87   43   45 1    
    88   45   46 1    
    89   45   49 1    
    90   45  107 1    
    91   46   47 1    
    92   46  108 1    
    93   46  109 1    
    94   47   48 1    
    95   48  110 1    
    96   48  111 1    
    97   49   50 am   BACKBONE|DICT|INTERRES
    98   49  112 1    
    99   50   51 2    
   100   50   52 1    
   101   52   53 1    
   102   52   54 1    
   103   52  113 1    
   104   53  114 1    
   105   53  115 1    
   106   53  116 1    
   107   54   55 am   BACKBONE|DICT|INTERRES
   108   54  117 1    
   109   55   56 2    
   110   55   57 1    
   111   57   58 1    
   112   57   59 1    
   113   57  118 1    
   114   58  119 1    
   115   58  120 1    
   116   58  121 1    
   117   59   60 am   BACKBONE|DICT|INTERRES
   118   59  122 1    
   119   60   61 2    
   120   60   62 1    
   121   62   63 1    
   122   62   64 1    
   123   62  123 1    
   124   63  124 1    
   125   63  125 1    
   126   63  126 1    
   127   64   65 am   BACKBONE|DICT|INTERRES
   128   64  127 1    
   129   65   66 2    
@<TRIPOS>SUBSTRUCTURE
     1 UNK         1 GROUP             0       ****    0 ROOT    
