@<TRIPOS>MOLECULE
3R135
127   129    1
SMALL
USER_CHARGES


@<TRIPOS>ATOM
      1 CA        -76.8169   26.5507  -71.9495 C.3       0 UNK        -0.1998 
      2 C         -78.0574   26.0152  -71.2512 C.2       0 UNK         0.4909 
      3 O         -77.9621   25.0694  -70.4696 O.2       0 UNK        -0.5240 
      4 N         -79.2223   26.6151  -71.5258 N.am      1 UNK        -0.4739 
      5 CA        -80.5072   26.3022  -70.8835 C.3       1 UNK         0.0864 
      6 C6        -81.4817   27.5058  -70.9501 C.3       11 UNK        -0.0881 
      7 S7        -80.8678   28.9372  -69.9999 S.3       11 UNK        -0.2682 
      8 C8        -80.8992   30.2639  -71.2435 C.3       11 UNK         0.0289 
      9 C9        -79.7347   30.1677  -72.2178 C.ar      11 UNK        -0.0687 
     10 C10       -79.9436   29.7525  -73.5360 C.ar      11 UNK        -0.0823 
     11 C11       -78.8806   29.7136  -74.4446 C.ar      11 UNK        -0.0830 
     12 C12       -77.6038   30.1028  -74.0261 C.ar      11 UNK        -0.1021 
     13 C13       -77.3848   30.5294  -72.7127 C.ar      11 UNK        -0.0753 
     14 C14       -78.4528   30.5487  -71.8111 C.ar      11 UNK        -0.0933 
     15 C15       -76.0204   31.0555  -72.2899 C.3       11 UNK         0.0166 
     16 S16       -74.6895   29.8207  -72.4385 S.3       11 UNK        -0.2615 
     17 C17       -73.2607   30.8911  -72.0475 C.3       11 UNK        -0.0865 
     18 CA        -72.6790   31.5717  -73.3240 C.3       10 UNK         0.0862 
     19 C         -71.7591   32.8079  -73.0606 C.2       10 UNK         0.5551 
     20 N         -71.8684   33.4766  -71.9195 N.am      10 UNK        -0.7319 
     21 O         -70.9813   33.2133  -73.9230 O.2       10 UNK        -0.5018 
     22 N         -72.0912   30.5863  -74.2483 N.am      10 UNK        -0.4509 
     23 C         -70.9148   29.9630  -74.0961 C.2       10 UNK         0.4899 
     24 O         -70.1584   30.1256  -73.1363 O.2       10 UNK        -0.4839 
     25 CA        -70.5519   28.9653  -75.2088 C.3       9 UNK         0.0222 
     26 CB        -69.0436   28.6398  -75.2617 C.3       9 UNK        -0.1966 
     27 N         -71.3564   27.7429  -75.1115 N.am      9 UNK        -0.4218 
     28 C         -71.3865   26.8555  -74.1004 C.2       9 UNK         0.5020 
     29 O         -70.6870   26.9328  -73.0897 O.2       9 UNK        -0.5274 
     30 CA        -72.3583   25.6650  -74.2218 C.3       8 UNK         0.0270 
     31 CB        -73.5093   25.8081  -73.2127 C.3       8 UNK        -0.1976 
     32 N         -72.9083   25.5000  -75.5702 N.am      8 UNK        -0.4313 
     33 C         -72.2150   25.0142  -76.6124 C.2       8 UNK         0.5041 
     34 O         -71.0732   24.5629  -76.5139 O.2       8 UNK        -0.5577 
     35 CA        -72.8760   25.0548  -78.0037 C.3       7 UNK         0.0284 
     36 CB        -73.2855   23.6404  -78.4458 C.3       7 UNK        -0.1958 
     37 N         -74.0355   25.9486  -78.0871 N.am      7 UNK        -0.4454 
     38 C         -73.9819   27.2864  -77.9827 C.2       7 UNK         0.5089 
     39 O         -72.9346   27.9132  -77.8169 O.2       7 UNK        -0.5125 
     40 CA        -75.3199   28.0529  -78.0006 C.3       6 UNK         0.0408 
     41 CB        -75.6388   28.5434  -79.4208 C.3       6 UNK        -0.1791 
     42 N         -76.4539   27.2758  -77.4904 N.am      6 UNK        -0.4762 
     43 C         -76.5300   26.7464  -76.2604 C.2       6 UNK         0.5007 
     44 O         -75.6649   26.9077  -75.4008 O.2       6 UNK        -0.5032 
     45 CA        -77.7312   25.8331  -75.9486 C.3       5 UNK         0.0783 
     46 C46       -78.8051   26.5650  -75.1083 C.3       11 UNK        -0.0857 
     47 S47       -79.9152   27.6632  -76.0563 S.3       11 UNK        -0.2512 
     48 C48       -79.1099   29.2919  -75.8911 C.3       11 UNK         0.0225 
     49 N         -78.3119   25.1389  -77.1038 N.am      5 UNK        -0.4615 
     50 C         -77.6653   24.3510  -77.9707 C.2       4 UNK         0.5053 
     51 O         -76.4406   24.2306  -78.0092 O.2       4 UNK        -0.5105 
     52 CA        -78.5546   23.5151  -78.9069 C.3       4 UNK         0.0263 
     53 CB        -77.7588   22.8712  -80.0576 C.3       4 UNK        -0.1981 
     54 N         -79.2102   22.4634  -78.1282 N.am      4 UNK        -0.4224 
     55 C         -80.2779   22.6448  -77.3391 C.2       3 UNK         0.4895 
     56 O         -80.9359   23.6883  -77.3214 O.2       3 UNK        -0.5091 
     57 CA        -80.6712   21.4856  -76.3997 C.3       3 UNK         0.0250 
     58 CB        -79.5800   20.4001  -76.2461 C.3       3 UNK        -0.1996 
     59 N         -81.0977   21.9625  -75.0766 N.am      3 UNK        -0.4254 
     60 C         -80.3958   22.7159  -74.2149 C.2       2 UNK         0.5004 
     61 O         -79.2481   23.1268  -74.4077 O.2       2 UNK        -0.5226 
     62 CA        -81.0884   23.0232  -72.8837 C.3       2 UNK         0.0269 
     63 CB        -80.8800   21.8631  -71.8898 C.3       2 UNK        -0.1926 
     64 N         -80.5623   24.2679  -72.3220 N.am      2 UNK        -0.4687 
     65 C         -81.1855   25.0080  -71.3957 C.2       1 UNK         0.5165 
     66 O         -82.2840   24.6956  -70.9316 O.2       1 UNK        -0.5079 
     67 H67       -76.5339   25.8930  -72.7703 H         1 UNK         0.0900 
     68 H68       -76.9754   27.5517  -72.3504 H         1 UNK         0.0900 
     69 H69       -75.9819   26.6039  -71.2515 H         1 UNK         0.0900 
     70 H70       -79.2364   27.4106  -72.1487 H         1 UNK         0.2959 
     71 H71       -80.3048   26.1100  -69.8271 H         1 UNK         0.1079 
     72 H72       -82.4547   27.2489  -70.5266 H         1 UNK         0.0837 
     73 H73       -81.6711   27.7869  -71.9874 H         1 UNK         0.0837 
     74 H74       -80.8519   31.2242  -70.7278 H         1 UNK         0.0685 
     75 H75       -81.8551   30.2519  -71.7696 H         1 UNK         0.0685 
     76 H76       -80.9357   29.4716  -73.8627 H         1 UNK         0.1434 
     77 H77       -76.7786   30.0950  -74.7256 H         1 UNK         0.1329 
     78 H78       -78.2974   30.8901  -70.7966 H         1 UNK         0.1335 
     79 H79       -75.7803   31.9205  -72.9094 H         1 UNK         0.0680 
     80 H80       -76.0507   31.4142  -71.2598 H         1 UNK         0.0680 
     81 H81       -72.4949   30.2927  -71.5511 H         1 UNK         0.1032 
     82 H82       -73.5900   31.6220  -71.3090 H         1 UNK         0.1032 
     83 H83       -73.5187   31.9999  -73.8722 H         1 UNK         0.0461 
     84 H84       -71.2855   34.2864  -71.7749 H         1 UNK         0.3453 
     85 H85       -72.5126   33.1931  -71.1994 H         1 UNK         0.3453 
     86 H86       -72.6375   30.3870  -75.0732 H         1 UNK         0.2984 
     87 H87       -70.8149   29.4321  -76.1595 H         1 UNK         0.0554 
     88 H88       -68.4574   29.5476  -75.4091 H         1 UNK         0.0847 
     89 H89       -68.8130   27.9662  -76.0870 H         1 UNK         0.0847 
     90 H90       -68.6895   28.1742  -74.3416 H         1 UNK         0.0847 
     91 H91       -71.9812   27.5835  -75.8937 H         1 UNK         0.3141 
     92 H92       -71.8000   24.7611  -73.9689 H         1 UNK         0.0743 
     93 H93       -74.2206   24.9866  -73.2979 H         1 UNK         0.0784 
     94 H94       -73.1317   25.8056  -72.1894 H         1 UNK         0.0784 
     95 H95       -74.0516   26.7442  -73.3508 H         1 UNK         0.0784 
     96 H96       -73.8428   25.8650  -75.7230 H         1 UNK         0.3213 
     97 H97       -72.1250   25.4249  -78.7050 H         1 UNK         0.0855 
     98 H98       -73.9972   23.1918  -77.7519 H         1 UNK         0.0814 
     99 H99       -72.4183   22.9803  -78.4917 H         1 UNK         0.0814 
    100 H100      -73.7408   23.6470  -79.4363 H         1 UNK         0.0814 
    101 H101      -74.9439   25.4976  -78.1672 H         1 UNK         0.3105 
    102 H102      -75.2046   28.9256  -77.3545 H         1 UNK         0.0547 
    103 H103      -75.7935   27.7124  -80.1102 H         1 UNK         0.0837 
    104 H104      -74.8213   29.1474  -79.8172 H         1 UNK         0.0837 
    105 H105      -76.5341   29.1651  -79.4354 H         1 UNK         0.0837 
    106 H106      -77.2035   27.0756  -78.1371 H         1 UNK         0.3020 
    107 H107      -77.3226   25.0413  -75.3161 H         1 UNK         0.1245 
    108 H108      -78.3469   27.1140  -74.2875 H         1 UNK         0.0781 
    109 H109      -79.4438   25.8223  -74.6302 H         1 UNK         0.0781 
    110 H110      -78.1712   29.2814  -76.4458 H         1 UNK         0.0836 
    111 H111      -79.7374   30.0402  -76.3769 H         1 UNK         0.0836 
    112 H112      -79.3250   25.1285  -77.1353 H         1 UNK         0.3022 
    113 H113      -79.3078   24.1750  -79.3430 H         1 UNK         0.0747 
    114 H114      -76.9947   22.1845  -79.6905 H         1 UNK         0.0793 
    115 H115      -78.4135   22.3158  -80.7293 H         1 UNK         0.0793 
    116 H116      -77.2530   23.6319  -80.6537 H         1 UNK         0.0793 
    117 H117      -78.7150   21.5861  -78.0592 H         1 UNK         0.3047 
    118 H118      -81.5454   21.0159  -76.8530 H         1 UNK         0.0822 
    119 H119      -79.8990   19.6216  -75.5527 H         1 UNK         0.0807 
    120 H120      -78.6442   20.8127  -75.8660 H         1 UNK         0.0807 
    121 H121      -79.3693   19.9051  -77.1949 H         1 UNK         0.0807 
    122 H122      -82.0389   21.7025  -74.8161 H         1 UNK         0.2946 
    123 H123      -82.1565   23.1494  -73.0767 H         1 UNK         0.1144 
    124 H124      -81.4206   22.0301  -70.9582 H         1 UNK         0.0793 
    125 H125      -79.8251   21.7319  -71.6450 H         1 UNK         0.0793 
    126 H126      -81.2392   20.9197  -72.3032 H         1 UNK         0.0793 
    127 H127      -79.6621   24.5575  -72.6811 H         1 UNK         0.2896 
@<TRIPOS>BOND
     1    1    2 1    
     2    1   67 1    
     3    1   68 1    
     4    1   69 1    
     5    2    3 2    
     6    2    4 am   BACKBONE|DICT|INTERRES
     7    4    5 1    
     8    4   70 1    
     9    5    6 1    
    10    5   65 1    
    11    5   71 1    
    12    6    7 1    
    13    6   72 1    
    14    6   73 1    
    15    7    8 1    
    16    8    9 1    
    17    8   74 1    
    18    8   75 1    
    19    9   10 ar   
    20    9   14 ar   
    21   10   11 ar   
    22   10   76 1    
    23   11   12 ar   
    24   11   48 1    
    25   12   13 ar   
    26   12   77 1    
    27   13   14 ar   
    28   13   15 1    
    29   14   78 1    
    30   15   16 1    
    31   15   79 1    
    32   15   80 1    
    33   16   17 1    
    34   17   18 1    
    35   17   81 1    
    36   17   82 1    
    37   18   19 1    
    38   18   22 1    
    39   18   83 1    
    40   19   20 am   BACKBONE|DICT|INTERRES
    41   19   21 2    
    42   20   84 1    
    43   20   85 1    
    44   22   23 am   BACKBONE|DICT|INTERRES
    45   22   86 1    
    46   23   24 2    
    47   23   25 1    
    48   25   26 1    
    49   25   27 1    
    50   25   87 1    
    51   26   88 1    
    52   26   89 1    
    53   26   90 1    
    54   27   28 am   BACKBONE|DICT|INTERRES
    55   27   91 1    
    56   28   29 2    
    57   28   30 1    
    58   30   31 1    
    59   30   32 1    
    60   30   92 1    
    61   31   93 1    
    62   31   94 1    
    63   31   95 1    
    64   32   33 am   BACKBONE|DICT|INTERRES
    65   32   96 1    
    66   33   34 2    
    67   33   35 1    
    68   35   36 1    
    69   35   37 1    
    70   35   97 1    
    71   36   98 1    
    72   36   99 1    
    73   36  100 1    
    74   37   38 am   BACKBONE|DICT|INTERRES
    75   37  101 1    
    76   38   39 2    
    77   38   40 1    
    78   40   41 1    
    79   40   42 1    
    80   40  102 1    
    81   41  103 1    
    82   41  104 1    
    83   41  105 1    
    84   42   43 am   BACKBONE|DICT|INTERRES
    85   42  106 1    
    86   43   44 2    
    87   43   45 1    
    88   45   46 1    
    89   45   49 1    
    90   45  107 1    
    91   46   47 1    
    92   46  108 1    
    93   46  109 1    
    94   47   48 1    
    95   48  110 1    
    96   48  111 1    
    97   49   50 am   BACKBONE|DICT|INTERRES
    98   49  112 1    
    99   50   51 2    
   100   50   52 1    
   101   52   53 1    
   102   52   54 1    
   103   52  113 1    
   104   53  114 1    
   105   53  115 1    
   106   53  116 1    
   107   54   55 am   BACKBONE|DICT|INTERRES
   108   54  117 1    
   109   55   56 2    
   110   55   57 1    
   111   57   58 1    
   112   57   59 1    
   113   57  118 1    
   114   58  119 1    
   115   58  120 1    
   116   58  121 1    
   117   59   60 am   BACKBONE|DICT|INTERRES
   118   59  122 1    
   119   60   61 2    
   120   60   62 1    
   121   62   63 1    
   122   62   64 1    
   123   62  123 1    
   124   63  124 1    
   125   63  125 1    
   126   63  126 1    
   127   64   65 am   BACKBONE|DICT|INTERRES
   128   64  127 1    
   129   65   66 2    
@<TRIPOS>SUBSTRUCTURE
     1 UNK         1 GROUP             0       ****    0 ROOT    
