@<TRIPOS>MOLECULE
3R135
127   129    1
SMALL
USER_CHARGES


@<TRIPOS>ATOM
      1 CA        -80.4752   24.7147  -69.7263 C.3       0 UNK        -0.1998 
      2 C         -81.5946   25.5038  -70.3884 C.2       0 UNK         0.4909 
      3 O         -82.7380   25.4320  -69.9376 O.2       0 UNK        -0.5240 
      4 N         -81.2744   26.2442  -71.4571 N.am      1 UNK        -0.4739 
      5 CA        -82.2149   27.0748  -72.2260 C.3       1 UNK         0.0864 
      6 C6        -81.7517   28.5548  -72.3244 C.3       11 UNK        -0.0881 
      7 S7        -81.6197   29.3349  -70.6735 S.3       11 UNK        -0.2682 
      8 C8        -80.2641   30.5457  -70.8928 C.3       11 UNK         0.0289 
      9 C9        -78.8912   29.9700  -71.2503 C.ar      11 UNK        -0.0687 
     10 C10       -78.5768   28.6146  -71.0928 C.ar      11 UNK        -0.0823 
     11 C11       -77.3489   28.1106  -71.5258 C.ar      11 UNK        -0.0830 
     12 C12       -76.3918   28.9833  -72.0486 C.ar      11 UNK        -0.1021 
     13 C13       -76.6701   30.3461  -72.1722 C.ar      11 UNK        -0.0753 
     14 C14       -77.9209   30.8309  -71.7757 C.ar      11 UNK        -0.0933 
     15 C15       -75.6365   31.2809  -72.7809 C.3       11 UNK         0.0166 
     16 S16       -74.1617   31.4319  -71.7257 S.3       11 UNK        -0.2615 
     17 C17       -73.2020   32.6711  -72.6641 C.3       11 UNK        -0.0865 
     18 CA        -71.9730   32.0974  -73.4198 C.3       10 UNK         0.0862 
     19 C         -70.7943   31.7135  -72.4753 C.2       10 UNK         0.5551 
     20 N         -70.1545   30.5604  -72.6298 N.am      10 UNK        -0.7319 
     21 O         -70.4347   32.4908  -71.5939 O.2       10 UNK        -0.5018 
     22 N         -72.3603   31.0459  -74.3758 N.am      10 UNK        -0.4509 
     23 C         -71.8175   30.8792  -75.5873 C.2       10 UNK         0.4899 
     24 O         -70.9725   31.6383  -76.0657 O.2       10 UNK        -0.4839 
     25 CA        -72.2961   29.6519  -76.3932 C.3       9 UNK         0.0222 
     26 CB        -71.4421   29.4114  -77.6554 C.3       9 UNK        -0.1966 
     27 N         -72.3907   28.4091  -75.6122 N.am      9 UNK        -0.4218 
     28 C         -71.4374   27.8548  -74.8444 C.2       9 UNK         0.5020 
     29 O         -70.3529   28.3812  -74.5946 O.2       9 UNK        -0.5274 
     30 CA        -71.7424   26.4657  -74.2676 C.3       8 UNK         0.0270 
     31 CB        -72.7559   26.5534  -73.1119 C.3       8 UNK        -0.1976 
     32 N         -72.2387   25.5670  -75.3122 N.am      8 UNK        -0.4313 
     33 C         -71.4576   24.8447  -76.1299 C.2       8 UNK         0.5041 
     34 O         -70.2296   24.8063  -76.0419 O.2       8 UNK        -0.5577 
     35 CA        -72.1489   24.0119  -77.2276 C.3       7 UNK         0.0284 
     36 CB        -72.3124   22.5537  -76.7696 C.3       7 UNK        -0.1958 
     37 N         -73.4564   24.5487  -77.6123 N.am      7 UNK        -0.4454 
     38 C         -73.6259   25.6311  -78.3889 C.2       7 UNK         0.5089 
     39 O         -72.7023   26.2002  -78.9690 O.2       7 UNK        -0.5125 
     40 CA        -75.0541   26.2015  -78.5219 C.3       6 UNK         0.0408 
     41 CB        -75.6769   25.7757  -79.8597 C.3       6 UNK        -0.1791 
     42 N         -75.9460   25.8180  -77.4211 N.am      6 UNK        -0.4762 
     43 C         -75.7384   26.1346  -76.1323 C.2       6 UNK         0.5007 
     44 O         -74.8408   26.8981  -75.7722 O.2       6 UNK        -0.5032 
     45 CA        -76.5872   25.4317  -75.0498 C.3       5 UNK         0.0783 
     46 C46       -77.4751   26.4430  -74.2955 C.3       11 UNK        -0.0857 
     47 S47       -78.1080   25.7436  -72.7311 S.3       11 UNK        -0.2512 
     48 C48       -77.0885   26.6128  -71.4915 C.3       11 UNK         0.0225 
     49 N         -77.3594   24.2916  -75.5553 N.am      5 UNK        -0.4615 
     50 C         -76.8284   23.1557  -76.0322 C.2       4 UNK         0.5053 
     51 O         -75.6163   22.9401  -76.0621 O.2       4 UNK        -0.5105 
     52 CA        -77.7921   22.1122  -76.6305 C.3       4 UNK         0.0263 
     53 CB        -78.1106   21.0254  -75.5918 C.3       4 UNK        -0.1981 
     54 N         -79.0479   22.6793  -77.1335 N.am      4 UNK        -0.4224 
     55 C         -79.1538   23.6219  -78.0829 C.2       3 UNK         0.4895 
     56 O         -78.1931   24.0623  -78.7137 O.2       3 UNK        -0.5091 
     57 CA        -80.5530   24.2168  -78.3377 C.3       3 UNK         0.0250 
     58 CB        -81.1854   23.5770  -79.5842 C.3       3 UNK        -0.1996 
     59 N         -81.4909   24.1098  -77.2098 N.am      3 UNK        -0.4254 
     60 C         -81.2872   24.5934  -75.9752 C.2       2 UNK         0.5004 
     61 O         -80.2460   25.1525  -75.6256 O.2       2 UNK        -0.5226 
     62 CA        -82.4088   24.3380  -74.9544 C.3       2 UNK         0.0269 
     63 CB        -82.4446   22.8508  -74.5589 C.3       2 UNK        -0.1926 
     64 N         -82.2381   25.1311  -73.7361 N.am      2 UNK        -0.4687 
     65 C         -82.4966   26.4406  -73.6081 C.2       1 UNK         0.5165 
     66 O         -82.9622   27.1283  -74.5189 O.2       1 UNK        -0.5079 
     67 H67       -80.3459   25.0429  -68.6953 H         1 UNK         0.0900 
     68 H68       -80.7186   23.6526  -69.7179 H         1 UNK         0.0900 
     69 H69       -79.5241   24.8386  -70.2418 H         1 UNK         0.0900 
     70 H70       -80.3262   26.2274  -71.8121 H         1 UNK         0.2959 
     71 H71       -83.1865   27.0846  -71.7272 H         1 UNK         0.1079 
     72 H72       -80.7984   28.6198  -72.8513 H         1 UNK         0.0837 
     73 H73       -82.4613   29.1454  -72.9068 H         1 UNK         0.0837 
     74 H74       -80.1654   31.1169  -69.9689 H         1 UNK         0.0685 
     75 H75       -80.5700   31.2555  -71.6630 H         1 UNK         0.0685 
     76 H76       -79.3009   27.9311  -70.6773 H         1 UNK         0.1434 
     77 H77       -75.4374   28.6018  -72.3850 H         1 UNK         0.1329 
     78 H78       -78.1488   31.8817  -71.8934 H         1 UNK         0.1335 
     79 H79       -75.3458   30.9059  -73.7634 H         1 UNK         0.0680 
     80 H80       -76.0657   32.2715  -72.9402 H         1 UNK         0.0680 
     81 H81       -72.8931   33.4578  -71.9733 H         1 UNK         0.1032 
     82 H82       -73.8575   33.1706  -73.3789 H         1 UNK         0.1032 
     83 H83       -71.5778   32.9361  -73.9961 H         1 UNK         0.0461 
     84 H84       -69.3907   30.3407  -72.0109 H         1 UNK         0.3453 
     85 H85       -70.3873   29.9203  -73.3819 H         1 UNK         0.3453 
     86 H86       -73.0176   30.3607  -74.0339 H         1 UNK         0.2984 
     87 H87       -73.3108   29.8822  -76.7212 H         1 UNK         0.0554 
     88 H88       -71.4354   30.2897  -78.3020 H         1 UNK         0.0847 
     89 H89       -71.8320   28.5839  -78.2463 H         1 UNK         0.0847 
     90 H90       -70.4062   29.1826  -77.4025 H         1 UNK         0.0847 
     91 H91       -73.2691   27.9023  -75.7073 H         1 UNK         0.3141 
     92 H92       -70.8132   26.0603  -73.8607 H         1 UNK         0.0743 
     93 H93       -72.3745   27.1894  -72.3117 H         1 UNK         0.0784 
     94 H94       -73.7119   26.9710  -73.4261 H         1 UNK         0.0784 
     95 H95       -72.9470   25.5712  -72.6794 H         1 UNK         0.0784 
     96 H96       -73.2321   25.6010  -75.4997 H         1 UNK         0.3213 
     97 H97       -71.4989   24.0195  -78.1056 H         1 UNK         0.0855 
     98 H98       -72.9303   22.4778  -75.8740 H         1 UNK         0.0814 
     99 H99       -71.3445   22.1086  -76.5351 H         1 UNK         0.0814 
    100 H100      -72.7710   21.9414  -77.5462 H         1 UNK         0.0814 
    101 H101      -74.2700   24.1087  -77.1943 H         1 UNK         0.3105 
    102 H102      -74.9714   27.2904  -78.5154 H         1 UNK         0.0547 
    103 H103      -76.6642   26.2170  -79.9976 H         1 UNK         0.0837 
    104 H104      -75.7820   24.6922  -79.9282 H         1 UNK         0.0837 
    105 H105      -75.0585   26.0970  -80.6989 H         1 UNK         0.0837 
    106 H106      -76.7056   25.1872  -77.6557 H         1 UNK         0.3020 
    107 H107      -75.8626   25.0326  -74.3362 H         1 UNK         0.1245 
    108 H108      -78.3207   26.7518  -74.9114 H         1 UNK         0.0781 
    109 H109      -76.9226   27.3580  -74.0879 H         1 UNK         0.0781 
    110 H110      -76.0348   26.3929  -71.6711 H         1 UNK         0.0836 
    111 H111      -77.3192   26.2253  -70.4983 H         1 UNK         0.0836 
    112 H112      -78.3674   24.4190  -75.5723 H         1 UNK         0.3022 
    113 H113      -77.2806   21.6453  -77.4747 H         1 UNK         0.0747 
    114 H114      -78.7177   20.2288  -76.0224 H         1 UNK         0.0793 
    115 H115      -77.1955   20.5652  -75.2159 H         1 UNK         0.0793 
    116 H116      -78.6470   21.4325  -74.7335 H         1 UNK         0.0793 
    117 H117      -79.8942   22.3825  -76.6714 H         1 UNK         0.3047 
    118 H118      -80.4101   25.2811  -78.5357 H         1 UNK         0.0822 
    119 H119      -82.1236   24.0645  -79.8496 H         1 UNK         0.0807 
    120 H120      -81.3869   22.5154  -79.4352 H         1 UNK         0.0807 
    121 H121      -80.5233   23.6647  -80.4471 H         1 UNK         0.0807 
    122 H122      -82.3669   23.6461  -77.4054 H         1 UNK         0.2946 
    123 H123      -83.3607   24.6103  -75.4164 H         1 UNK         0.1144 
    124 H124      -81.5021   22.5286  -74.1136 H         1 UNK         0.0793 
    125 H125      -82.6327   22.2122  -75.4228 H         1 UNK         0.0793 
    126 H126      -83.2389   22.6522  -73.8388 H         1 UNK         0.0793 
    127 H127      -81.8276   24.6595  -72.9440 H         1 UNK         0.2896 
@<TRIPOS>BOND
     1    1    2 1    
     2    1   67 1    
     3    1   68 1    
     4    1   69 1    
     5    2    3 2    
     6    2    4 am   BACKBONE|DICT|INTERRES
     7    4    5 1    
     8    4   70 1    
     9    5    6 1    
    10    5   65 1    
    11    5   71 1    
    12    6    7 1    
    13    6   72 1    
    14    6   73 1    
    15    7    8 1    
    16    8    9 1    
    17    8   74 1    
    18    8   75 1    
    19    9   10 ar   
    20    9   14 ar   
    21   10   11 ar   
    22   10   76 1    
    23   11   12 ar   
    24   11   48 1    
    25   12   13 ar   
    26   12   77 1    
    27   13   14 ar   
    28   13   15 1    
    29   14   78 1    
    30   15   16 1    
    31   15   79 1    
    32   15   80 1    
    33   16   17 1    
    34   17   18 1    
    35   17   81 1    
    36   17   82 1    
    37   18   19 1    
    38   18   22 1    
    39   18   83 1    
    40   19   20 am   BACKBONE|DICT|INTERRES
    41   19   21 2    
    42   20   84 1    
    43   20   85 1    
    44   22   23 am   BACKBONE|DICT|INTERRES
    45   22   86 1    
    46   23   24 2    
    47   23   25 1    
    48   25   26 1    
    49   25   27 1    
    50   25   87 1    
    51   26   88 1    
    52   26   89 1    
    53   26   90 1    
    54   27   28 am   BACKBONE|DICT|INTERRES
    55   27   91 1    
    56   28   29 2    
    57   28   30 1    
    58   30   31 1    
    59   30   32 1    
    60   30   92 1    
    61   31   93 1    
    62   31   94 1    
    63   31   95 1    
    64   32   33 am   BACKBONE|DICT|INTERRES
    65   32   96 1    
    66   33   34 2    
    67   33   35 1    
    68   35   36 1    
    69   35   37 1    
    70   35   97 1    
    71   36   98 1    
    72   36   99 1    
    73   36  100 1    
    74   37   38 am   BACKBONE|DICT|INTERRES
    75   37  101 1    
    76   38   39 2    
    77   38   40 1    
    78   40   41 1    
    79   40   42 1    
    80   40  102 1    
    81   41  103 1    
    82   41  104 1    
    83   41  105 1    
    84   42   43 am   BACKBONE|DICT|INTERRES
    85   42  106 1    
    86   43   44 2    
    87   43   45 1    
    88   45   46 1    
    89   45   49 1    
    90   45  107 1    
    91   46   47 1    
    92   46  108 1    
    93   46  109 1    
    94   47   48 1    
    95   48  110 1    
    96   48  111 1    
    97   49   50 am   BACKBONE|DICT|INTERRES
    98   49  112 1    
    99   50   51 2    
   100   50   52 1    
   101   52   53 1    
   102   52   54 1    
   103   52  113 1    
   104   53  114 1    
   105   53  115 1    
   106   53  116 1    
   107   54   55 am   BACKBONE|DICT|INTERRES
   108   54  117 1    
   109   55   56 2    
   110   55   57 1    
   111   57   58 1    
   112   57   59 1    
   113   57  118 1    
   114   58  119 1    
   115   58  120 1    
   116   58  121 1    
   117   59   60 am   BACKBONE|DICT|INTERRES
   118   59  122 1    
   119   60   61 2    
   120   60   62 1    
   121   62   63 1    
   122   62   64 1    
   123   62  123 1    
   124   63  124 1    
   125   63  125 1    
   126   63  126 1    
   127   64   65 am   BACKBONE|DICT|INTERRES
   128   64  127 1    
   129   65   66 2    
@<TRIPOS>SUBSTRUCTURE
     1 UNK         1 GROUP             0       ****    0 ROOT    
