@<TRIPOS>MOLECULE
3R135
127   129    1
SMALL
USER_CHARGES


@<TRIPOS>ATOM
      1 CA        -85.8596   28.1856  -75.3966 C.3       0 UNK        -0.1998 
      2 C         -84.5273   28.4874  -76.0658 C.2       0 UNK         0.4909 
      3 O         -84.4880   28.7264  -77.2730 O.2       0 UNK        -0.5240 
      4 N         -83.4345   28.4774  -75.2912 N.am      1 UNK        -0.4739 
      5 CA        -82.0641   28.7193  -75.7643 C.3       1 UNK         0.0864 
      6 C6        -81.1312   29.1655  -74.6099 C.3       11 UNK        -0.0881 
      7 S7        -81.0864   28.0072  -73.1970 S.3       11 UNK        -0.2682 
      8 C8        -80.3839   29.0660  -71.8900 C.3       11 UNK         0.0289 
      9 C9        -78.9117   28.7677  -71.6419 C.ar      11 UNK        -0.0687 
     10 C10       -78.5592   27.6653  -70.8586 C.ar      11 UNK        -0.0823 
     11 C11       -77.2185   27.3946  -70.5801 C.ar      11 UNK        -0.0830 
     12 C12       -76.2301   28.2358  -71.0880 C.ar      11 UNK        -0.1021 
     13 C13       -76.5553   29.3275  -71.8971 C.ar      11 UNK        -0.0753 
     14 C14       -77.9060   29.5909  -72.1659 C.ar      11 UNK        -0.0933 
     15 C15       -75.4587   30.1855  -72.5304 C.3       11 UNK         0.0166 
     16 S16       -74.2051   30.8047  -71.3580 S.3       11 UNK        -0.2615 
     17 C17       -72.9079   29.5095  -71.3865 C.3       11 UNK        -0.0865 
     18 CA        -71.7756   29.7967  -72.4079 C.3       10 UNK         0.0862 
     19 C         -70.4720   29.0091  -72.0718 C.2       10 UNK         0.5551 
     20 N         -69.8416   28.3069  -73.0068 N.am      10 UNK        -0.7319 
     21 O         -70.0090   29.0476  -70.9344 O.2       10 UNK        -0.5018 
     22 N         -72.2459   29.5845  -73.7859 N.am      10 UNK        -0.4509 
     23 C         -71.8310   30.2857  -74.8469 C.2       10 UNK         0.4899 
     24 O         -71.0648   31.2483  -74.7745 O.2       10 UNK        -0.4839 
     25 CA        -72.3554   29.8192  -76.2189 C.3       9 UNK         0.0222 
     26 CB        -71.6207   30.4851  -77.4016 C.3       9 UNK        -0.1966 
     27 N         -72.3631   28.3586  -76.3789 N.am      9 UNK        -0.4218 
     28 C         -71.3175   27.5205  -76.2815 C.2       9 UNK         0.5020 
     29 O         -70.1822   27.8909  -75.9794 O.2       9 UNK        -0.5274 
     30 CA        -71.5526   26.0144  -76.5303 C.3       8 UNK         0.0270 
     31 CB        -71.1757   25.1999  -75.2809 C.3       8 UNK        -0.1976 
     32 N         -72.9231   25.6746  -76.9222 N.am      8 UNK        -0.4313 
     33 C         -73.4674   25.8960  -78.1266 C.2       8 UNK         0.5041 
     34 O         -72.8391   26.3248  -79.0946 O.2       8 UNK        -0.5577 
     35 CA        -74.9857   25.6621  -78.2497 C.3       7 UNK         0.0284 
     36 CB        -75.2918   24.2065  -78.6358 C.3       7 UNK        -0.1958 
     37 N         -75.7142   26.0153  -77.0252 N.am      7 UNK        -0.4454 
     38 C         -75.7517   27.2446  -76.4909 C.2       7 UNK         0.5089 
     39 O         -75.2347   28.2315  -77.0122 O.2       7 UNK        -0.5125 
     40 CA        -76.4080   27.3884  -75.1134 C.3       6 UNK         0.0408 
     41 CB        -77.9300   27.4993  -75.2362 C.3       6 UNK        -0.1791 
     42 N         -76.0390   26.2905  -74.2182 N.am      6 UNK        -0.4762 
     43 C         -74.8482   26.1800  -73.6090 C.2       6 UNK         0.5007 
     44 O         -73.9674   27.0402  -73.6808 O.2       6 UNK        -0.5032 
     45 CA        -74.5598   24.8686  -72.8420 C.3       5 UNK         0.0783 
     46 C46       -74.7745   24.9908  -71.3094 C.3       11 UNK        -0.0857 
     47 S47       -76.5018   24.7315  -70.7551 S.3       11 UNK        -0.2512 
     48 C48       -76.8330   26.1964  -69.7293 C.3       11 UNK         0.0225 
     49 N         -75.2752   23.7181  -73.3986 N.am      5 UNK        -0.4615 
     50 C         -75.0439   23.1649  -74.5937 C.2       4 UNK         0.5053 
     51 O         -74.1394   23.5230  -75.3460 O.2       4 UNK        -0.5105 
     52 CA        -76.0340   22.0743  -75.0422 C.3       4 UNK         0.0263 
     53 CB        -75.6124   20.7025  -74.4934 C.3       4 UNK        -0.1981 
     54 N         -77.4197   22.3642  -74.6447 N.am      4 UNK        -0.4224 
     55 C         -78.1118   23.4298  -75.0719 C.2       3 UNK         0.4895 
     56 O         -77.6531   24.2539  -75.8643 O.2       3 UNK        -0.5091 
     57 CA        -79.5050   23.6496  -74.4528 C.3       3 UNK         0.0250 
     58 CB        -79.3760   24.3157  -73.0724 C.3       3 UNK        -0.1996 
     59 N         -80.3749   24.4835  -75.2875 N.am      3 UNK        -0.4254 
     60 C         -80.8517   24.1354  -76.4906 C.2       2 UNK         0.5004 
     61 O         -80.6279   23.0446  -77.0190 O.2       2 UNK        -0.5226 
     62 CA        -81.7567   25.1453  -77.2214 C.3       2 UNK         0.0269 
     63 CB        -83.0886   24.4901  -77.6312 C.3       2 UNK        -0.1926 
     64 N         -82.0618   26.3410  -76.4270 N.am      2 UNK        -0.4687 
     65 C         -81.4813   27.5401  -76.5788 C.2       1 UNK         0.5165 
     66 O         -80.5409   27.7461  -77.3464 O.2       1 UNK        -0.5079 
     67 H67       -86.3172   27.3074  -75.8513 H         1 UNK         0.0900 
     68 H68       -85.7461   27.9951  -74.3295 H         1 UNK         0.0900 
     69 H69       -86.5404   29.0275  -75.5199 H         1 UNK         0.0900 
     70 H70       -83.5183   28.2788  -74.3033 H         1 UNK         0.2959 
     71 H71       -82.1119   29.5544  -76.4674 H         1 UNK         0.1079 
     72 H72       -80.1176   29.3434  -74.9684 H         1 UNK         0.0837 
     73 H73       -81.4793   30.1331  -74.2452 H         1 UNK         0.0837 
     74 H74       -80.5256   30.1210  -72.1279 H         1 UNK         0.0685 
     75 H75       -80.9436   28.8928  -70.9696 H         1 UNK         0.0685 
     76 H76       -79.3318   27.0191  -70.4644 H         1 UNK         0.1434 
     77 H77       -75.2034   28.0206  -70.8552 H         1 UNK         0.1329 
     78 H78       -78.1772   30.4322  -72.7887 H         1 UNK         0.1335 
     79 H79       -74.9564   29.6181  -73.3104 H         1 UNK         0.0680 
     80 H80       -75.9031   31.0500  -73.0256 H         1 UNK         0.0680 
     81 H81       -72.5123   29.4596  -70.3703 H         1 UNK         0.1032 
     82 H82       -73.3264   28.5262  -71.5868 H         1 UNK         0.1032 
     83 H83       -71.5010   30.8470  -72.2929 H         1 UNK         0.0461 
     84 H84       -68.9978   27.8153  -72.7600 H         1 UNK         0.3453 
     85 H85       -70.1628   28.2970  -73.9676 H         1 UNK         0.3453 
     86 H86       -72.8431   28.7763  -73.9284 H         1 UNK         0.2984 
     87 H87       -73.3985   30.1347  -76.2626 H         1 UNK         0.0554 
     88 H88       -71.7127   31.5711  -77.3595 H         1 UNK         0.0847 
     89 H89       -72.0354   30.1633  -78.3569 H         1 UNK         0.0847 
     90 H90       -70.5561   30.2483  -77.4011 H         1 UNK         0.0847 
     91 H91       -73.2699   27.9691  -76.6141 H         1 UNK         0.3141 
     92 H92       -70.8859   25.7166  -77.3420 H         1 UNK         0.0743 
     93 H93       -71.7578   25.5066  -74.4124 H         1 UNK         0.0784 
     94 H94       -71.3353   24.1325  -75.4356 H         1 UNK         0.0784 
     95 H95       -70.1233   25.3352  -75.0280 H         1 UNK         0.0784 
     96 H96       -73.4971   25.2175  -76.2199 H         1 UNK         0.3213 
     97 H97       -75.3546   26.3105  -79.0473 H         1 UNK         0.0855 
     98 H98       -74.9236   23.5024  -77.8902 H         1 UNK         0.0814 
     99 H99       -74.8199   23.9498  -79.5851 H         1 UNK         0.0814 
    100 H100      -76.3636   24.0426  -78.7503 H         1 UNK         0.0814 
    101 H101      -76.2343   25.2741  -76.5598 H         1 UNK         0.3105 
    102 H102      -76.0549   28.3212  -74.6789 H         1 UNK         0.0547 
    103 H103      -78.1956   28.3905  -75.8045 H         1 UNK         0.0837 
    104 H104      -78.3746   26.6516  -75.7539 H         1 UNK         0.0837 
    105 H105      -78.3959   27.5790  -74.2562 H         1 UNK         0.0837 
    106 H106      -76.6876   25.5193  -74.1573 H         1 UNK         0.3020 
    107 H107      -73.4953   24.6775  -72.9939 H         1 UNK         0.1245 
    108 H108      -74.3802   25.9339  -70.9309 H         1 UNK         0.0781 
    109 H109      -74.1776   24.2231  -70.8147 H         1 UNK         0.0781 
    110 H110      -75.9645   26.4250  -69.1096 H         1 UNK         0.0836 
    111 H111      -77.6422   25.9605  -69.0365 H         1 UNK         0.0836 
    112 H112      -76.0368   23.3678  -72.8355 H         1 UNK         0.3022 
    113 H113      -76.0026   22.0301  -76.1328 H         1 UNK         0.0747 
    114 H114      -76.2553   19.9084  -74.8737 H         1 UNK         0.0793 
    115 H115      -74.5914   20.4609  -74.7926 H         1 UNK         0.0793 
    116 H116      -75.6484   20.6719  -73.4036 H         1 UNK         0.0793 
    117 H117      -77.8508   21.7266  -73.9902 H         1 UNK         0.3047 
    118 H118      -79.9869   22.6769  -74.3339 H         1 UNK         0.0822 
    119 H119      -78.8095   23.6872  -72.3849 H         1 UNK         0.0807 
    120 H120      -80.3528   24.4821  -72.6178 H         1 UNK         0.0807 
    121 H121      -78.8691   25.2803  -73.1291 H         1 UNK         0.0807 
    122 H122      -80.5966   25.4047  -74.9397 H         1 UNK         0.2946 
    123 H123      -81.2280   25.4315  -78.1336 H         1 UNK         0.1144 
    124 H124      -83.7213   25.1893  -78.1787 H         1 UNK         0.0793 
    125 H125      -83.6491   24.1382  -76.7643 H         1 UNK         0.0793 
    126 H126      -82.9223   23.6314  -78.2832 H         1 UNK         0.0793 
    127 H127      -82.8205   26.2651  -75.7643 H         1 UNK         0.2896 
@<TRIPOS>BOND
     1    1    2 1    
     2    1   67 1    
     3    1   68 1    
     4    1   69 1    
     5    2    3 2    
     6    2    4 am   BACKBONE|DICT|INTERRES
     7    4    5 1    
     8    4   70 1    
     9    5    6 1    
    10    5   65 1    
    11    5   71 1    
    12    6    7 1    
    13    6   72 1    
    14    6   73 1    
    15    7    8 1    
    16    8    9 1    
    17    8   74 1    
    18    8   75 1    
    19    9   10 ar   
    20    9   14 ar   
    21   10   11 ar   
    22   10   76 1    
    23   11   12 ar   
    24   11   48 1    
    25   12   13 ar   
    26   12   77 1    
    27   13   14 ar   
    28   13   15 1    
    29   14   78 1    
    30   15   16 1    
    31   15   79 1    
    32   15   80 1    
    33   16   17 1    
    34   17   18 1    
    35   17   81 1    
    36   17   82 1    
    37   18   19 1    
    38   18   22 1    
    39   18   83 1    
    40   19   20 am   BACKBONE|DICT|INTERRES
    41   19   21 2    
    42   20   84 1    
    43   20   85 1    
    44   22   23 am   BACKBONE|DICT|INTERRES
    45   22   86 1    
    46   23   24 2    
    47   23   25 1    
    48   25   26 1    
    49   25   27 1    
    50   25   87 1    
    51   26   88 1    
    52   26   89 1    
    53   26   90 1    
    54   27   28 am   BACKBONE|DICT|INTERRES
    55   27   91 1    
    56   28   29 2    
    57   28   30 1    
    58   30   31 1    
    59   30   32 1    
    60   30   92 1    
    61   31   93 1    
    62   31   94 1    
    63   31   95 1    
    64   32   33 am   BACKBONE|DICT|INTERRES
    65   32   96 1    
    66   33   34 2    
    67   33   35 1    
    68   35   36 1    
    69   35   37 1    
    70   35   97 1    
    71   36   98 1    
    72   36   99 1    
    73   36  100 1    
    74   37   38 am   BACKBONE|DICT|INTERRES
    75   37  101 1    
    76   38   39 2    
    77   38   40 1    
    78   40   41 1    
    79   40   42 1    
    80   40  102 1    
    81   41  103 1    
    82   41  104 1    
    83   41  105 1    
    84   42   43 am   BACKBONE|DICT|INTERRES
    85   42  106 1    
    86   43   44 2    
    87   43   45 1    
    88   45   46 1    
    89   45   49 1    
    90   45  107 1    
    91   46   47 1    
    92   46  108 1    
    93   46  109 1    
    94   47   48 1    
    95   48  110 1    
    96   48  111 1    
    97   49   50 am   BACKBONE|DICT|INTERRES
    98   49  112 1    
    99   50   51 2    
   100   50   52 1    
   101   52   53 1    
   102   52   54 1    
   103   52  113 1    
   104   53  114 1    
   105   53  115 1    
   106   53  116 1    
   107   54   55 am   BACKBONE|DICT|INTERRES
   108   54  117 1    
   109   55   56 2    
   110   55   57 1    
   111   57   58 1    
   112   57   59 1    
   113   57  118 1    
   114   58  119 1    
   115   58  120 1    
   116   58  121 1    
   117   59   60 am   BACKBONE|DICT|INTERRES
   118   59  122 1    
   119   60   61 2    
   120   60   62 1    
   121   62   63 1    
   122   62   64 1    
   123   62  123 1    
   124   63  124 1    
   125   63  125 1    
   126   63  126 1    
   127   64   65 am   BACKBONE|DICT|INTERRES
   128   64  127 1    
   129   65   66 2    
@<TRIPOS>SUBSTRUCTURE
     1 UNK         1 GROUP             0       ****    0 ROOT    
