@<TRIPOS>MOLECULE
3R135
127   129    1
SMALL
USER_CHARGES


@<TRIPOS>ATOM
      1 CA        -83.7012   25.7811  -73.5144 C.3       0 UNK        -0.1998 
      2 C         -82.6689   26.5071  -74.3628 C.2       0 UNK         0.4909 
      3 O         -82.8506   26.6286  -75.5752 O.2       0 UNK        -0.5240 
      4 N         -81.5829   26.9836  -73.7373 N.am      1 UNK        -0.4739 
      5 CA        -80.4458   27.6491  -74.3865 C.3       1 UNK         0.0864 
      6 C6        -79.3522   28.0460  -73.3673 C.3       11 UNK        -0.0881 
      7 S7        -79.9197   29.2626  -72.1326 S.3       11 UNK        -0.2682 
      8 C8        -79.0292   28.7180  -70.6339 C.3       11 UNK         0.0289 
      9 C9        -77.5394   28.5114  -70.8838 C.ar      11 UNK        -0.0687 
     10 C10       -76.9808   27.2331  -70.7832 C.ar      11 UNK        -0.0823 
     11 C11       -75.6275   27.0238  -71.0649 C.ar      11 UNK        -0.0830 
     12 C12       -74.8305   28.1064  -71.4475 C.ar      11 UNK        -0.1021 
     13 C13       -75.3748   29.3916  -71.5397 C.ar      11 UNK        -0.0753 
     14 C14       -76.7269   29.5898  -71.2462 C.ar      11 UNK        -0.0933 
     15 C15       -74.5214   30.5488  -72.0324 C.3       11 UNK         0.0166 
     16 S16       -73.1401   30.9272  -70.9196 S.3       11 UNK        -0.2615 
     17 C17       -72.2558   32.1902  -71.9064 C.3       11 UNK        -0.0865 
     18 CA        -71.2777   31.6436  -72.9887 C.3       10 UNK         0.0862 
     19 C         -70.2360   30.6323  -72.4339 C.2       10 UNK         0.5551 
     20 N         -70.2504   29.3666  -72.8318 N.am      10 UNK        -0.7319 
     21 O         -69.3739   31.0156  -71.6463 O.2       10 UNK        -0.5018 
     22 N         -71.9627   31.2061  -74.2196 N.am      10 UNK        -0.4509 
     23 C         -72.2938   32.0249  -75.2300 C.2       10 UNK         0.4899 
     24 O         -72.1190   33.2438  -75.1998 O.2       10 UNK        -0.4839 
     25 CA        -72.9028   31.4094  -76.5071 C.3       9 UNK         0.0222 
     26 CB        -71.8193   31.2448  -77.5854 C.3       9 UNK        -0.1966 
     27 N         -73.5529   30.1186  -76.2858 N.am      9 UNK        -0.4218 
     28 C         -74.7269   29.9475  -75.6658 C.2       9 UNK         0.5020 
     29 O         -75.4614   30.8808  -75.3399 O.2       9 UNK        -0.5274 
     30 CA        -75.1569   28.5050  -75.3217 C.3       8 UNK         0.0270 
     31 CB        -76.3941   28.1040  -76.1387 C.3       8 UNK        -0.1976 
     32 N         -74.1345   27.4580  -75.4693 N.am      8 UNK        -0.4313 
     33 C         -72.9277   27.4139  -74.8845 C.2       8 UNK         0.5041 
     34 O         -72.4711   28.3324  -74.2008 O.2       8 UNK        -0.5577 
     35 CA        -72.0726   26.1544  -75.1181 C.3       7 UNK         0.0284 
     36 CB        -71.2284   25.8064  -73.8783 C.3       7 UNK        -0.1958 
     37 N         -72.8865   24.9896  -75.4745 N.am      7 UNK        -0.4454 
     38 C         -73.0821   24.5179  -76.7134 C.2       7 UNK         0.5089 
     39 O         -72.6125   25.0387  -77.7246 O.2       7 UNK        -0.5125 
     40 CA        -73.9555   23.2555  -76.8504 C.3       6 UNK         0.0408 
     41 CB        -73.0699   22.0106  -77.0188 C.3       6 UNK        -0.1791 
     42 N         -74.8524   23.0575  -75.7066 N.am      6 UNK        -0.4762 
     43 C         -75.9815   23.7515  -75.5093 C.2       6 UNK         0.5007 
     44 O         -76.4233   24.5758  -76.3117 O.2       6 UNK        -0.5032 
     45 CA        -76.6979   23.5344  -74.1662 C.3       5 UNK         0.0783 
     46 C46       -76.4858   24.7408  -73.2178 C.3       11 UNK        -0.0857 
     47 S47       -74.7773   24.8614  -72.5899 S.3       11 UNK        -0.2512 
     48 C48       -75.0274   25.6286  -70.9578 C.3       11 UNK         0.0225 
     49 N         -78.1210   23.3374  -74.4206 N.am      5 UNK        -0.4615 
     50 C         -78.7805   22.1807  -74.3083 C.2       4 UNK         0.5053 
     51 O         -78.2402   21.1111  -74.0253 O.2       4 UNK        -0.5105 
     52 CA        -80.3009   22.2175  -74.5220 C.3       4 UNK         0.0263 
     53 CB        -81.0028   22.7590  -73.2643 C.3       4 UNK        -0.1981 
     54 N         -80.6849   23.0424  -75.6704 N.am      4 UNK        -0.4224 
     55 C         -81.3854   22.6042  -76.7273 C.2       3 UNK         0.4895 
     56 O         -81.7256   21.4301  -76.8804 O.2       3 UNK        -0.5091 
     57 CA        -81.8184   23.6343  -77.7898 C.3       3 UNK         0.0250 
     58 CB        -83.3296   23.9016  -77.6900 C.3       3 UNK        -0.1996 
     59 N         -81.1012   24.9070  -77.6914 N.am      3 UNK        -0.4254 
     60 C         -79.8636   25.1101  -78.1663 C.2       2 UNK         0.5004 
     61 O         -79.2456   24.2737  -78.8256 O.2       2 UNK        -0.5226 
     62 CA        -79.1857   26.4584  -77.8474 C.3       2 UNK         0.0269 
     63 CB        -79.1827   27.3700  -79.0850 C.3       2 UNK        -0.1926 
     64 N         -79.7586   27.1957  -76.7118 N.am      2 UNK        -0.4687 
     65 C         -79.8255   26.7335  -75.4564 C.2       1 UNK         0.5165 
     66 O         -79.4440   25.6116  -75.1239 O.2       1 UNK        -0.5079 
     67 H67       -84.6610   26.2937  -73.5718 H         1 UNK         0.0900 
     68 H68       -83.8354   24.7633  -73.8799 H         1 UNK         0.0900 
     69 H69       -83.4048   25.7289  -72.4670 H         1 UNK         0.0900 
     70 H70       -81.4939   26.8616  -72.7390 H         1 UNK         0.2959 
     71 H71       -80.8218   28.5529  -74.8702 H         1 UNK         0.1079 
     72 H72       -78.4874   28.4807  -73.8731 H         1 UNK         0.0837 
     73 H73       -78.9854   27.1545  -72.8547 H         1 UNK         0.0837 
     74 H74       -79.4913   27.8006  -70.2659 H         1 UNK         0.0685 
     75 H75       -79.1626   29.4649  -69.8502 H         1 UNK         0.0685 
     76 H76       -77.6041   26.3958  -70.5006 H         1 UNK         0.1434 
     77 H77       -73.7880   27.9487  -71.6911 H         1 UNK         0.1329 
     78 H78       -77.1608   30.5763  -71.3368 H         1 UNK         0.1335 
     79 H79       -74.1125   30.2717  -72.9989 H         1 UNK         0.0680 
     80 H80       -75.1219   31.4462  -72.1894 H         1 UNK         0.0680 
     81 H81       -72.9804   32.8686  -72.3594 H         1 UNK         0.1032 
     82 H82       -71.6940   32.8061  -71.2020 H         1 UNK         0.1032 
     83 H83       -70.6533   32.4913  -73.2787 H         1 UNK         0.0461 
     84 H84       -69.5539   28.7378  -72.4674 H         1 UNK         0.3453 
     85 H85       -71.0122   29.0000  -73.3975 H         1 UNK         0.3453 
     86 H86       -72.1449   30.2090  -74.2974 H         1 UNK         0.2984 
     87 H87       -73.6518   32.1090  -76.8842 H         1 UNK         0.0554 
     88 H88       -71.0394   30.5490  -77.2729 H         1 UNK         0.0847 
     89 H89       -72.2416   30.8795  -78.5217 H         1 UNK         0.0847 
     90 H90       -71.3359   32.1987  -77.8015 H         1 UNK         0.0847 
     91 H91       -73.0126   29.2930  -76.4979 H         1 UNK         0.3141 
     92 H92       -75.4455   28.5131  -74.2699 H         1 UNK         0.0743 
     93 H93       -76.1586   27.9815  -77.1965 H         1 UNK         0.0784 
     94 H94       -76.8128   27.1671  -75.7740 H         1 UNK         0.0784 
     95 H95       -77.1808   28.8560  -76.0644 H         1 UNK         0.0784 
     96 H96       -74.4044   26.6564  -76.0215 H         1 UNK         0.3213 
     97 H97       -71.3849   26.3868  -75.9338 H         1 UNK         0.0855 
     98 H98       -71.8480   25.6688  -72.9916 H         1 UNK         0.0814 
     99 H99       -70.5137   26.5988  -73.6553 H         1 UNK         0.0814 
    100 H100      -70.6532   24.8933  -74.0320 H         1 UNK         0.0814 
    101 H101      -73.3521   24.5234  -74.7075 H         1 UNK         0.3105 
    102 H102      -74.5587   23.3667  -77.7542 H         1 UNK         0.0547 
    103 H103      -73.6700   21.1149  -77.1798 H         1 UNK         0.0837 
    104 H104      -72.4378   21.8407  -76.1463 H         1 UNK         0.0837 
    105 H105      -72.4108   22.1153  -77.8819 H         1 UNK         0.0837 
    106 H106      -74.5529   22.3922  -75.0071 H         1 UNK         0.3020 
    107 H107      -76.2878   22.6442  -73.6836 H         1 UNK         0.1245 
    108 H108      -77.1541   24.6426  -72.3610 H         1 UNK         0.0781 
    109 H109      -76.7557   25.6826  -73.7005 H         1 UNK         0.0781 
    110 H110      -74.0652   25.6883  -70.4470 H         1 UNK         0.0836 
    111 H111      -75.6556   24.9804  -70.3448 H         1 UNK         0.0836 
    112 H112      -78.6232   24.1785  -74.7052 H         1 UNK         0.3022 
    113 H113      -80.6257   21.1850  -74.6669 H         1 UNK         0.0747 
    114 H114      -82.0869   22.7058  -73.3644 H         1 UNK         0.0793 
    115 H115      -80.7300   22.1780  -72.3822 H         1 UNK         0.0793 
    116 H116      -80.7363   23.7986  -73.0676 H         1 UNK         0.0793 
    117 H117      -80.3985   24.0161  -75.6401 H         1 UNK         0.3047 
    118 H118      -81.6194   23.1943  -78.7695 H         1 UNK         0.0822 
    119 H119      -83.6597   24.6109  -78.4491 H         1 UNK         0.0807 
    120 H120      -83.6064   24.3008  -76.7138 H         1 UNK         0.0807 
    121 H121      -83.8988   22.9827  -77.8373 H         1 UNK         0.0807 
    122 H122      -81.5481   25.6427  -77.1559 H         1 UNK         0.2946 
    123 H123      -78.1499   26.2219  -77.5958 H         1 UNK         0.1144 
    124 H124      -78.6028   28.2763  -78.9092 H         1 UNK         0.0793 
    125 H125      -80.1931   27.6646  -79.3709 H         1 UNK         0.0793 
    126 H126      -78.7355   26.8644  -79.9422 H         1 UNK         0.0793 
    127 H127      -80.1264   28.1143  -76.9149 H         1 UNK         0.2896 
@<TRIPOS>BOND
     1    1    2 1    
     2    1   67 1    
     3    1   68 1    
     4    1   69 1    
     5    2    3 2    
     6    2    4 am   BACKBONE|DICT|INTERRES
     7    4    5 1    
     8    4   70 1    
     9    5    6 1    
    10    5   65 1    
    11    5   71 1    
    12    6    7 1    
    13    6   72 1    
    14    6   73 1    
    15    7    8 1    
    16    8    9 1    
    17    8   74 1    
    18    8   75 1    
    19    9   10 ar   
    20    9   14 ar   
    21   10   11 ar   
    22   10   76 1    
    23   11   12 ar   
    24   11   48 1    
    25   12   13 ar   
    26   12   77 1    
    27   13   14 ar   
    28   13   15 1    
    29   14   78 1    
    30   15   16 1    
    31   15   79 1    
    32   15   80 1    
    33   16   17 1    
    34   17   18 1    
    35   17   81 1    
    36   17   82 1    
    37   18   19 1    
    38   18   22 1    
    39   18   83 1    
    40   19   20 am   BACKBONE|DICT|INTERRES
    41   19   21 2    
    42   20   84 1    
    43   20   85 1    
    44   22   23 am   BACKBONE|DICT|INTERRES
    45   22   86 1    
    46   23   24 2    
    47   23   25 1    
    48   25   26 1    
    49   25   27 1    
    50   25   87 1    
    51   26   88 1    
    52   26   89 1    
    53   26   90 1    
    54   27   28 am   BACKBONE|DICT|INTERRES
    55   27   91 1    
    56   28   29 2    
    57   28   30 1    
    58   30   31 1    
    59   30   32 1    
    60   30   92 1    
    61   31   93 1    
    62   31   94 1    
    63   31   95 1    
    64   32   33 am   BACKBONE|DICT|INTERRES
    65   32   96 1    
    66   33   34 2    
    67   33   35 1    
    68   35   36 1    
    69   35   37 1    
    70   35   97 1    
    71   36   98 1    
    72   36   99 1    
    73   36  100 1    
    74   37   38 am   BACKBONE|DICT|INTERRES
    75   37  101 1    
    76   38   39 2    
    77   38   40 1    
    78   40   41 1    
    79   40   42 1    
    80   40  102 1    
    81   41  103 1    
    82   41  104 1    
    83   41  105 1    
    84   42   43 am   BACKBONE|DICT|INTERRES
    85   42  106 1    
    86   43   44 2    
    87   43   45 1    
    88   45   46 1    
    89   45   49 1    
    90   45  107 1    
    91   46   47 1    
    92   46  108 1    
    93   46  109 1    
    94   47   48 1    
    95   48  110 1    
    96   48  111 1    
    97   49   50 am   BACKBONE|DICT|INTERRES
    98   49  112 1    
    99   50   51 2    
   100   50   52 1    
   101   52   53 1    
   102   52   54 1    
   103   52  113 1    
   104   53  114 1    
   105   53  115 1    
   106   53  116 1    
   107   54   55 am   BACKBONE|DICT|INTERRES
   108   54  117 1    
   109   55   56 2    
   110   55   57 1    
   111   57   58 1    
   112   57   59 1    
   113   57  118 1    
   114   58  119 1    
   115   58  120 1    
   116   58  121 1    
   117   59   60 am   BACKBONE|DICT|INTERRES
   118   59  122 1    
   119   60   61 2    
   120   60   62 1    
   121   62   63 1    
   122   62   64 1    
   123   62  123 1    
   124   63  124 1    
   125   63  125 1    
   126   63  126 1    
   127   64   65 am   BACKBONE|DICT|INTERRES
   128   64  127 1    
   129   65   66 2    
@<TRIPOS>SUBSTRUCTURE
     1 UNK         1 GROUP             0       ****    0 ROOT    
