@<TRIPOS>MOLECULE
3R135
127   129    1
SMALL
USER_CHARGES


@<TRIPOS>ATOM
      1 CA        -84.8075   27.3942  -71.7542 C.3       0 UNK        -0.1998 
      2 C         -83.4270   27.4011  -72.3926 C.2       0 UNK         0.4909 
      3 O         -82.5988   26.5512  -72.0647 O.2       0 UNK        -0.5240 
      4 N         -83.1781   28.3467  -73.3104 N.am      1 UNK        -0.4739 
      5 CA        -81.9335   28.5702  -74.0666 C.3       1 UNK         0.0864 
      6 C6        -80.6872   28.7655  -73.1601 C.3       11 UNK        -0.0881 
      7 S7        -79.5657   30.0692  -73.7671 S.3       11 UNK        -0.2682 
      8 C8        -78.6403   30.4673  -72.2493 C.3       11 UNK         0.0289 
      9 C9        -77.6243   29.3861  -71.9100 C.ar      11 UNK        -0.0687 
     10 C10       -78.0135   28.2495  -71.1973 C.ar      11 UNK        -0.0823 
     11 C11       -77.0934   27.2370  -70.9182 C.ar      11 UNK        -0.0830 
     12 C12       -75.7603   27.3931  -71.3078 C.ar      11 UNK        -0.1021 
     13 C13       -75.3533   28.5242  -72.0235 C.ar      11 UNK        -0.0753 
     14 C14       -76.2961   29.5137  -72.3248 C.ar      11 UNK        -0.0933 
     15 C15       -73.9199   28.6131  -72.5397 C.3       11 UNK         0.0166 
     16 S16       -73.0328   30.1100  -71.9883 S.3       11 UNK        -0.2615 
     17 C17       -73.4727   31.4359  -73.1777 C.3       11 UNK        -0.0865 
     18 CA        -73.6949   31.0290  -74.6720 C.3       10 UNK         0.0862 
     19 C         -74.1039   32.2339  -75.5752 C.2       10 UNK         0.5551 
     20 N         -75.0239   33.0779  -75.1253 N.am      10 UNK        -0.7319 
     21 O         -73.6309   32.4003  -76.6986 O.2       10 UNK        -0.5018 
     22 N         -72.5878   30.2376  -75.2383 N.am      10 UNK        -0.4509 
     23 C         -71.3079   30.6227  -75.3466 C.2       10 UNK         0.4899 
     24 O         -70.8765   31.6970  -74.9233 O.2       10 UNK        -0.4839 
     25 CA        -70.3469   29.6587  -76.0755 C.3       9 UNK         0.0222 
     26 CB        -68.8683   29.8905  -75.6960 C.3       9 UNK        -0.1966 
     27 N         -70.6986   28.2392  -75.9426 N.am      9 UNK        -0.4218 
     28 C         -70.7704   27.5040  -74.8236 C.2       9 UNK         0.5020 
     29 O         -70.5399   27.9435  -73.6964 O.2       9 UNK        -0.5274 
     30 CA        -71.1648   26.0222  -75.0080 C.3       8 UNK         0.0270 
     31 CB        -71.3280   25.2804  -73.6677 C.3       8 UNK        -0.1976 
     32 N         -72.3892   25.8591  -75.8019 N.am      8 UNK        -0.4313 
     33 C         -72.4627   25.9728  -77.1380 C.2       8 UNK         0.5041 
     34 O         -71.4847   26.2344  -77.8405 O.2       8 UNK        -0.5577 
     35 CA        -73.8350   25.8079  -77.8189 C.3       7 UNK         0.0284 
     36 CB        -73.9420   24.4253  -78.4804 C.3       7 UNK        -0.1958 
     37 N         -74.9751   26.0041  -76.9229 N.am      7 UNK        -0.4454 
     38 C         -75.2868   27.1605  -76.3202 C.2       7 UNK         0.5089 
     39 O         -74.6742   28.2137  -76.5014 O.2       7 UNK        -0.5125 
     40 CA        -76.4431   27.1257  -75.3057 C.3       6 UNK         0.0408 
     41 CB        -77.7359   27.6501  -75.9443 C.3       6 UNK        -0.1791 
     42 N         -76.6806   25.8119  -74.6869 N.am      6 UNK        -0.4762 
     43 C         -75.7715   25.1441  -73.9539 C.2       6 UNK         0.5007 
     44 O         -74.6145   25.5388  -73.8055 O.2       6 UNK        -0.5032 
     45 CA        -76.1578   23.7893  -73.3346 C.3       5 UNK         0.0783 
     46 C46       -76.5191   23.8667  -71.8296 C.3       11 UNK        -0.0857 
     47 S47       -78.0929   24.7098  -71.4389 S.3       11 UNK        -0.2512 
     48 C48       -77.5578   25.9649  -70.2268 C.3       11 UNK         0.0225 
     49 N         -77.1469   23.0704  -74.1412 N.am      5 UNK        -0.4615 
     50 C         -77.0339   21.7750  -74.4682 C.2       4 UNK         0.5053 
     51 O         -76.1643   21.0298  -74.0147 O.2       4 UNK        -0.5105 
     52 CA        -78.0301   21.1999  -75.4943 C.3       4 UNK         0.0263 
     53 CB        -79.1787   20.4755  -74.7735 C.3       4 UNK        -0.1981 
     54 N         -78.5947   22.1936  -76.4095 N.am      4 UNK        -0.4224 
     55 C         -77.9051   23.0114  -77.2190 C.2       3 UNK         0.4895 
     56 O         -76.6848   22.9645  -77.3685 O.2       3 UNK        -0.5091 
     57 CA        -78.7033   24.1072  -77.9491 C.3       3 UNK         0.0250 
     58 CB        -78.9026   23.7289  -79.4253 C.3       3 UNK        -0.1996 
     59 N         -80.0084   24.4253  -77.3508 N.am      3 UNK        -0.4254 
     60 C         -80.2194   24.8433  -76.0936 C.2       2 UNK         0.5004 
     61 O         -79.3277   24.9631  -75.2482 O.2       2 UNK        -0.5226 
     62 CA        -81.6839   25.0770  -75.6974 C.3       2 UNK         0.0269 
     63 CB        -82.2459   23.8309  -74.9940 C.3       2 UNK        -0.1926 
     64 N         -81.8337   26.2272  -74.8091 N.am      2 UNK        -0.4687 
     65 C         -81.6926   27.5097  -75.1646 C.2       1 UNK         0.5165 
     66 O         -81.4321   27.8702  -76.3135 O.2       1 UNK        -0.5079 
     67 H67       -85.3080   26.4472  -71.9545 H         1 UNK         0.0900 
     68 H68       -84.7210   27.5122  -70.6744 H         1 UNK         0.0900 
     69 H69       -85.4376   28.1983  -72.1338 H         1 UNK         0.0900 
     70 H70       -83.9236   28.9883  -73.5449 H         1 UNK         0.2959 
     71 H71       -82.1156   29.5078  -74.5951 H         1 UNK         0.1079 
     72 H72       -81.0032   29.0566  -72.1574 H         1 UNK         0.0837 
     73 H73       -80.1313   27.8337  -73.0355 H         1 UNK         0.0837 
     74 H74       -78.1332   31.4228  -72.3916 H         1 UNK         0.0685 
     75 H75       -79.3306   30.6143  -71.4173 H         1 UNK         0.0685 
     76 H76       -79.0425   28.1360  -70.8861 H         1 UNK         0.1434 
     77 H77       -75.0470   26.6087  -71.0977 H         1 UNK         0.1329 
     78 H78       -76.0095   30.3780  -72.9012 H         1 UNK         0.1335 
     79 H79       -73.3470   27.7589  -72.1763 H         1 UNK         0.0680 
     80 H80       -73.9097   28.5116  -73.6228 H         1 UNK         0.0680 
     81 H81       -72.6890   32.1923  -73.1160 H         1 UNK         0.1032 
     82 H82       -74.3598   31.9273  -72.7786 H         1 UNK         0.1032 
     83 H83       -74.5596   30.3687  -74.7189 H         1 UNK         0.0461 
     84 H84       -75.4558   32.9628  -74.2232 H         1 UNK         0.3453 
     85 H85       -75.3002   33.8490  -75.7131 H         1 UNK         0.3453 
     86 H86       -72.8679   29.3668  -75.6703 H         1 UNK         0.2984 
     87 H87       -70.4493   29.8890  -77.1368 H         1 UNK         0.0554 
     88 H88       -68.5554   30.9074  -75.9358 H         1 UNK         0.0847 
     89 H89       -68.2073   29.2151  -76.2389 H         1 UNK         0.0847 
     90 H90       -68.6980   29.7420  -74.6291 H         1 UNK         0.0847 
     91 H91       -70.9092   27.7485  -76.8095 H         1 UNK         0.3141 
     92 H92       -70.3430   25.5429  -75.5443 H         1 UNK         0.0743 
     93 H93       -70.3958   25.2890  -73.1014 H         1 UNK         0.0784 
     94 H94       -72.0914   25.7419  -73.0409 H         1 UNK         0.0784 
     95 H95       -71.6044   24.2370  -73.8198 H         1 UNK         0.0784 
     96 H96       -73.2428   25.7042  -75.2726 H         1 UNK         0.3213 
     97 H97       -73.8967   26.5664  -78.6023 H         1 UNK         0.0855 
     98 H98       -73.9177   23.6221  -77.7427 H         1 UNK         0.0814 
     99 H99       -73.1166   24.2574  -79.1736 H         1 UNK         0.0814 
    100 H100      -74.8661   24.3283  -79.0506 H         1 UNK         0.0814 
    101 H101      -75.5282   25.1865  -76.7042 H         1 UNK         0.3105 
    102 H102      -76.1782   27.8107  -74.5034 H         1 UNK         0.0547 
    103 H103      -78.0456   27.0483  -76.7972 H         1 UNK         0.0837 
    104 H104      -77.6087   28.6745  -76.2967 H         1 UNK         0.0837 
    105 H105      -78.5544   27.6569  -75.2256 H         1 UNK         0.0837 
    106 H106      -77.6305   25.4547  -74.7658 H         1 UNK         0.3020 
    107 H107      -75.2220   23.2263  -73.3822 H         1 UNK         0.1245 
    108 H108      -75.7003   24.3302  -71.2780 H         1 UNK         0.0781 
    109 H109      -76.5907   22.8538  -71.4307 H         1 UNK         0.0781 
    110 H110      -76.7733   25.5653  -69.5825 H         1 UNK         0.0836 
    111 H111      -78.3977   26.1903  -69.5679 H         1 UNK         0.0836 
    112 H112      -77.9094   23.6156  -74.5273 H         1 UNK         0.3022 
    113 H113      -77.4871   20.4716  -76.1000 H         1 UNK         0.0747 
    114 H114      -79.8440   19.9803  -75.4811 H         1 UNK         0.0793 
    115 H115      -78.7947   19.7067  -74.1014 H         1 UNK         0.0793 
    116 H116      -79.7757   21.1639  -74.1735 H         1 UNK         0.0793 
    117 H117      -79.5942   22.3221  -76.3658 H         1 UNK         0.3047 
    118 H118      -78.0967   25.0131  -77.9127 H         1 UNK         0.0822 
    119 H119      -79.3676   24.5407  -79.9851 H         1 UNK         0.0807 
    120 H120      -79.5282   22.8420  -79.5343 H         1 UNK         0.0807 
    121 H121      -77.9470   23.5144  -79.9065 H         1 UNK         0.0807 
    122 H122      -80.8058   24.3318  -77.9641 H         1 UNK         0.2946 
    123 H123      -82.2710   25.2688  -76.5985 H         1 UNK         0.1144 
    124 H124      -83.2942   23.9657  -74.7263 H         1 UNK         0.0793 
    125 H125      -81.6947   23.6023  -74.0804 H         1 UNK         0.0793 
    126 H126      -82.1882   22.9535  -75.6394 H         1 UNK         0.0793 
    127 H127      -82.0250   26.0383  -73.8290 H         1 UNK         0.2896 
@<TRIPOS>BOND
     1    1    2 1    
     2    1   67 1    
     3    1   68 1    
     4    1   69 1    
     5    2    3 2    
     6    2    4 am   BACKBONE|DICT|INTERRES
     7    4    5 1    
     8    4   70 1    
     9    5    6 1    
    10    5   65 1    
    11    5   71 1    
    12    6    7 1    
    13    6   72 1    
    14    6   73 1    
    15    7    8 1    
    16    8    9 1    
    17    8   74 1    
    18    8   75 1    
    19    9   10 ar   
    20    9   14 ar   
    21   10   11 ar   
    22   10   76 1    
    23   11   12 ar   
    24   11   48 1    
    25   12   13 ar   
    26   12   77 1    
    27   13   14 ar   
    28   13   15 1    
    29   14   78 1    
    30   15   16 1    
    31   15   79 1    
    32   15   80 1    
    33   16   17 1    
    34   17   18 1    
    35   17   81 1    
    36   17   82 1    
    37   18   19 1    
    38   18   22 1    
    39   18   83 1    
    40   19   20 am   BACKBONE|DICT|INTERRES
    41   19   21 2    
    42   20   84 1    
    43   20   85 1    
    44   22   23 am   BACKBONE|DICT|INTERRES
    45   22   86 1    
    46   23   24 2    
    47   23   25 1    
    48   25   26 1    
    49   25   27 1    
    50   25   87 1    
    51   26   88 1    
    52   26   89 1    
    53   26   90 1    
    54   27   28 am   BACKBONE|DICT|INTERRES
    55   27   91 1    
    56   28   29 2    
    57   28   30 1    
    58   30   31 1    
    59   30   32 1    
    60   30   92 1    
    61   31   93 1    
    62   31   94 1    
    63   31   95 1    
    64   32   33 am   BACKBONE|DICT|INTERRES
    65   32   96 1    
    66   33   34 2    
    67   33   35 1    
    68   35   36 1    
    69   35   37 1    
    70   35   97 1    
    71   36   98 1    
    72   36   99 1    
    73   36  100 1    
    74   37   38 am   BACKBONE|DICT|INTERRES
    75   37  101 1    
    76   38   39 2    
    77   38   40 1    
    78   40   41 1    
    79   40   42 1    
    80   40  102 1    
    81   41  103 1    
    82   41  104 1    
    83   41  105 1    
    84   42   43 am   BACKBONE|DICT|INTERRES
    85   42  106 1    
    86   43   44 2    
    87   43   45 1    
    88   45   46 1    
    89   45   49 1    
    90   45  107 1    
    91   46   47 1    
    92   46  108 1    
    93   46  109 1    
    94   47   48 1    
    95   48  110 1    
    96   48  111 1    
    97   49   50 am   BACKBONE|DICT|INTERRES
    98   49  112 1    
    99   50   51 2    
   100   50   52 1    
   101   52   53 1    
   102   52   54 1    
   103   52  113 1    
   104   53  114 1    
   105   53  115 1    
   106   53  116 1    
   107   54   55 am   BACKBONE|DICT|INTERRES
   108   54  117 1    
   109   55   56 2    
   110   55   57 1    
   111   57   58 1    
   112   57   59 1    
   113   57  118 1    
   114   58  119 1    
   115   58  120 1    
   116   58  121 1    
   117   59   60 am   BACKBONE|DICT|INTERRES
   118   59  122 1    
   119   60   61 2    
   120   60   62 1    
   121   62   63 1    
   122   62   64 1    
   123   62  123 1    
   124   63  124 1    
   125   63  125 1    
   126   63  126 1    
   127   64   65 am   BACKBONE|DICT|INTERRES
   128   64  127 1    
   129   65   66 2    
@<TRIPOS>SUBSTRUCTURE
     1 UNK         1 GROUP             0       ****    0 ROOT    
