@<TRIPOS>MOLECULE
3R135
127   129    1
SMALL
USER_CHARGES


@<TRIPOS>ATOM
      1 CA        -79.4799   22.1390  -70.8351 C.3       0 UNK        -0.1998 
      2 C         -80.8548   22.6865  -71.1874 C.2       0 UNK         0.4909 
      3 O         -81.8498   21.9715  -71.0700 O.2       0 UNK        -0.5240 
      4 N         -80.9171   23.9494  -71.6277 N.am      1 UNK        -0.4739 
      5 CA        -82.1475   24.6591  -72.0063 C.3       1 UNK         0.0864 
      6 C6        -82.0168   26.1905  -71.7912 C.3       11 UNK        -0.0881 
      7 S7        -80.5422   26.9505  -72.5655 S.3       11 UNK        -0.2682 
      8 C8        -79.7910   27.7246  -71.0977 C.3       11 UNK         0.0289 
      9 C9        -78.5725   28.5709  -71.4363 C.ar      11 UNK        -0.0687 
     10 C10       -78.7257   29.7690  -72.1376 C.ar      11 UNK        -0.0823 
     11 C11       -77.6232   30.5891  -72.3925 C.ar      11 UNK        -0.0830 
     12 C12       -76.3622   30.2089  -71.9227 C.ar      11 UNK        -0.1021 
     13 C13       -76.1838   28.9967  -71.2399 C.ar      11 UNK        -0.0753 
     14 C14       -77.2995   28.1861  -71.0049 C.ar      11 UNK        -0.0933 
     15 C15       -74.8163   28.5077  -70.7522 C.3       11 UNK         0.0166 
     16 S16       -73.5607   29.8134  -70.5010 S.3       11 UNK        -0.2615 
     17 C17       -72.3826   29.4676  -71.8550 C.3       11 UNK        -0.0865 
     18 CA        -72.9281   29.8576  -73.2578 C.3       10 UNK         0.0862 
     19 C         -72.8631   31.3810  -73.5884 C.2       10 UNK         0.5551 
     20 N         -73.1050   31.7708  -74.8333 N.am      10 UNK        -0.7319 
     21 O         -72.5982   32.2159  -72.7271 O.2       10 UNK        -0.5018 
     22 N         -72.3965   28.9887  -74.3161 N.am      10 UNK        -0.4509 
     23 C         -71.1315   28.9793  -74.7580 C.2       10 UNK         0.4899 
     24 O         -70.2442   29.7129  -74.3185 O.2       10 UNK        -0.4839 
     25 CA        -70.8083   27.9639  -75.8732 C.3       9 UNK         0.0222 
     26 CB        -69.2934   27.7331  -76.0584 C.3       9 UNK        -0.1966 
     27 N         -71.5119   26.6854  -75.7094 N.am      9 UNK        -0.4218 
     28 C         -71.4562   25.8526  -74.6545 C.2       9 UNK         0.5020 
     29 O         -70.7336   26.0376  -73.6740 O.2       9 UNK        -0.5274 
     30 CA        -72.3657   24.6103  -74.6799 C.3       8 UNK         0.0270 
     31 CB        -73.1183   24.4369  -73.3466 C.3       8 UNK        -0.1976 
     32 N         -73.3364   24.6757  -75.7768 N.am      8 UNK        -0.4313 
     33 C         -73.2690   23.9385  -76.8928 C.2       8 UNK         0.5041 
     34 O         -72.4167   23.0713  -77.0898 O.2       8 UNK        -0.5577 
     35 CA        -74.3082   24.2125  -77.9923 C.3       7 UNK         0.0284 
     36 CB        -75.5046   23.2558  -77.8601 C.3       7 UNK        -0.1958 
     37 N         -74.7920   25.5953  -78.0637 N.am      7 UNK        -0.4454 
     38 C         -74.0446   26.6567  -78.3999 C.2       7 UNK         0.5089 
     39 O         -72.8175   26.6267  -78.4881 O.2       7 UNK        -0.5125 
     40 CA        -74.7904   27.9694  -78.6840 C.3       6 UNK         0.0408 
     41 CB        -75.6121   27.8596  -79.9793 C.3       6 UNK        -0.1791 
     42 N         -75.6766   28.3087  -77.5741 N.am      6 UNK        -0.4762 
     43 C         -75.3929   29.2068  -76.6203 C.2       6 UNK         0.5007 
     44 O         -74.3954   29.9288  -76.6339 O.2       6 UNK        -0.5032 
     45 CA        -76.3488   29.2591  -75.4064 C.3       5 UNK         0.0783 
     46 C46       -77.4278   30.3656  -75.5459 C.3       11 UNK        -0.0857 
     47 S47       -76.8837   31.9140  -74.7475 S.3       11 UNK        -0.2512 
     48 C48       -77.8024   31.8894  -73.1692 C.3       11 UNK         0.0225 
     49 N         -76.9280   27.9536  -75.0792 N.am      5 UNK        -0.4615 
     50 C         -76.2129   26.8617  -74.7765 C.2       4 UNK         0.5053 
     51 O         -74.9842   26.8532  -74.6877 O.2       4 UNK        -0.5105 
     52 CA        -76.9791   25.5363  -74.6338 C.3       4 UNK         0.0263 
     53 CB        -77.1939   25.1847  -73.1547 C.3       4 UNK        -0.1981 
     54 N         -78.2598   25.4827  -75.3557 N.am      4 UNK        -0.4224 
     55 C         -78.4047   25.6167  -76.6859 C.2       3 UNK         0.4895 
     56 O         -77.4780   25.9277  -77.4363 O.2       3 UNK        -0.5091 
     57 CA        -79.7952   25.3407  -77.2801 C.3       3 UNK         0.0250 
     58 CB        -79.7198   24.9215  -78.7647 C.3       3 UNK        -0.1996 
     59 N         -80.4931   24.3228  -76.4933 N.am      3 UNK        -0.4254 
     60 C         -81.8141   24.1081  -76.4921 C.2       2 UNK         0.5004 
     61 O         -82.6199   24.7317  -77.1835 O.2       2 UNK        -0.5226 
     62 CA        -82.3141   23.0323  -75.5173 C.3       2 UNK         0.0269 
     63 CB        -81.7306   21.6454  -75.8425 C.3       2 UNK        -0.1926 
     64 N         -81.9900   23.3992  -74.1368 N.am      2 UNK        -0.4687 
     65 C         -82.6647   24.3126  -73.4225 C.2       1 UNK         0.5165 
     66 O         -83.6773   24.8759  -73.8422 O.2       1 UNK        -0.5079 
     67 H67       -78.6977   22.8877  -70.9586 H         1 UNK         0.0900 
     68 H68       -79.2398   21.2880  -71.4719 H         1 UNK         0.0900 
     69 H69       -79.4651   21.8034  -69.7986 H         1 UNK         0.0900 
     70 H70       -80.0717   24.4966  -71.7059 H         1 UNK         0.2959 
     71 H71       -82.9405   24.3196  -71.3356 H         1 UNK         0.1079 
     72 H72       -81.9937   26.3826  -70.7175 H         1 UNK         0.0837 
     73 H73       -82.9040   26.7186  -72.1463 H         1 UNK         0.0837 
     74 H74       -80.5314   28.3597  -70.6086 H         1 UNK         0.0685 
     75 H75       -79.5307   26.9456  -70.3792 H         1 UNK         0.0685 
     76 H76       -79.7097   30.0624  -72.4774 H         1 UNK         0.1434 
     77 H77       -75.5241   30.8629  -72.1126 H         1 UNK         0.1329 
     78 H78       -77.1777   27.2550  -70.4682 H         1 UNK         0.1335 
     79 H79       -74.4455   27.7610  -71.4560 H         1 UNK         0.0680 
     80 H80       -74.9400   27.9909  -69.7992 H         1 UNK         0.0680 
     81 H81       -71.4400   29.9790  -71.6518 H         1 UNK         0.1032 
     82 H82       -72.1454   28.4026  -71.8216 H         1 UNK         0.1032 
     83 H83       -73.9859   29.6175  -73.2552 H         1 UNK         0.0461 
     84 H84       -73.0678   32.7511  -75.0603 H         1 UNK         0.3453 
     85 H85       -73.3899   31.0973  -75.5389 H         1 UNK         0.3453 
     86 H86       -73.0600   28.3516  -74.7362 H         1 UNK         0.2984 
     87 H87       -71.1899   28.4014  -76.7969 H         1 UNK         0.0554 
     88 H88       -69.0953   27.0308  -76.8679 H         1 UNK         0.0847 
     89 H89       -68.8300   27.3412  -75.1524 H         1 UNK         0.0847 
     90 H90       -68.7830   28.6642  -76.3075 H         1 UNK         0.0847 
     91 H91       -72.1050   26.4246  -76.4894 H         1 UNK         0.3141 
     92 H92       -71.7100   23.7461  -74.8025 H         1 UNK         0.0743 
     93 H93       -73.6778   25.3313  -73.0733 H         1 UNK         0.0784 
     94 H94       -73.8174   23.6016  -73.3885 H         1 UNK         0.0784 
     95 H95       -72.4223   24.2342  -72.5317 H         1 UNK         0.0784 
     96 H96       -74.0526   25.3900  -75.6852 H         1 UNK         0.3213 
     97 H97       -73.8194   23.9997  -78.9457 H         1 UNK         0.0855 
     98 H98       -75.1754   22.2159  -77.8754 H         1 UNK         0.0814 
     99 H99       -76.2084   23.3836  -78.6829 H         1 UNK         0.0814 
    100 H100      -76.0488   23.4093  -76.9291 H         1 UNK         0.0814 
    101 H101      -75.7980   25.7226  -77.9580 H         1 UNK         0.3105 
    102 H102      -74.0443   28.7534  -78.8302 H         1 UNK         0.0547 
    103 H103      -76.0825   28.8109  -80.2278 H         1 UNK         0.0837 
    104 H104      -74.9773   27.5830  -80.8221 H         1 UNK         0.0837 
    105 H105      -76.4002   27.1092  -79.9031 H         1 UNK         0.0837 
    106 H106      -76.4889   27.7132  -77.4508 H         1 UNK         0.3020 
    107 H107      -75.7233   29.4999  -74.5500 H         1 UNK         0.1245 
    108 H108      -78.3692   30.0578  -75.0886 H         1 UNK         0.0781 
    109 H109      -77.6712   30.5695  -76.5905 H         1 UNK         0.0781 
    110 H110      -78.8574   32.0744  -73.3775 H         1 UNK         0.0836 
    111 H111      -77.4641   32.7225  -72.5517 H         1 UNK         0.0836 
    112 H112      -77.9323   27.8724  -75.1277 H         1 UNK         0.3022 
    113 H113      -76.3391   24.7633  -75.0606 H         1 UNK         0.0747 
    114 H114      -77.6302   24.1925  -73.0405 H         1 UNK         0.0793 
    115 H115      -77.8471   25.9017  -72.6621 H         1 UNK         0.0793 
    116 H116      -76.2476   25.1848  -72.6117 H         1 UNK         0.0793 
    117 H117      -79.0834   25.3183  -74.7954 H         1 UNK         0.3047 
    118 H118      -80.3532   26.2768  -77.2106 H         1 UNK         0.0822 
    119 H119      -79.1524   23.9987  -78.8907 H         1 UNK         0.0807 
    120 H120      -79.2333   25.6896  -79.3675 H         1 UNK         0.0807 
    121 H121      -80.7106   24.7661  -79.1912 H         1 UNK         0.0807 
    122 H122      -79.9091   23.7363  -75.9142 H         1 UNK         0.2946 
    123 H123      -83.4002   22.9705  -75.6227 H         1 UNK         0.1144 
    124 H124      -81.9356   21.3702  -76.8781 H         1 UNK         0.0793 
    125 H125      -80.6501   21.6046  -75.7014 H         1 UNK         0.0793 
    126 H126      -82.1758   20.8757  -75.2116 H         1 UNK         0.0793 
    127 H127      -81.1894   22.9584  -73.7090 H         1 UNK         0.2896 
@<TRIPOS>BOND
     1    1    2 1    
     2    1   67 1    
     3    1   68 1    
     4    1   69 1    
     5    2    3 2    
     6    2    4 am   BACKBONE|DICT|INTERRES
     7    4    5 1    
     8    4   70 1    
     9    5    6 1    
    10    5   65 1    
    11    5   71 1    
    12    6    7 1    
    13    6   72 1    
    14    6   73 1    
    15    7    8 1    
    16    8    9 1    
    17    8   74 1    
    18    8   75 1    
    19    9   10 ar   
    20    9   14 ar   
    21   10   11 ar   
    22   10   76 1    
    23   11   12 ar   
    24   11   48 1    
    25   12   13 ar   
    26   12   77 1    
    27   13   14 ar   
    28   13   15 1    
    29   14   78 1    
    30   15   16 1    
    31   15   79 1    
    32   15   80 1    
    33   16   17 1    
    34   17   18 1    
    35   17   81 1    
    36   17   82 1    
    37   18   19 1    
    38   18   22 1    
    39   18   83 1    
    40   19   20 am   BACKBONE|DICT|INTERRES
    41   19   21 2    
    42   20   84 1    
    43   20   85 1    
    44   22   23 am   BACKBONE|DICT|INTERRES
    45   22   86 1    
    46   23   24 2    
    47   23   25 1    
    48   25   26 1    
    49   25   27 1    
    50   25   87 1    
    51   26   88 1    
    52   26   89 1    
    53   26   90 1    
    54   27   28 am   BACKBONE|DICT|INTERRES
    55   27   91 1    
    56   28   29 2    
    57   28   30 1    
    58   30   31 1    
    59   30   32 1    
    60   30   92 1    
    61   31   93 1    
    62   31   94 1    
    63   31   95 1    
    64   32   33 am   BACKBONE|DICT|INTERRES
    65   32   96 1    
    66   33   34 2    
    67   33   35 1    
    68   35   36 1    
    69   35   37 1    
    70   35   97 1    
    71   36   98 1    
    72   36   99 1    
    73   36  100 1    
    74   37   38 am   BACKBONE|DICT|INTERRES
    75   37  101 1    
    76   38   39 2    
    77   38   40 1    
    78   40   41 1    
    79   40   42 1    
    80   40  102 1    
    81   41  103 1    
    82   41  104 1    
    83   41  105 1    
    84   42   43 am   BACKBONE|DICT|INTERRES
    85   42  106 1    
    86   43   44 2    
    87   43   45 1    
    88   45   46 1    
    89   45   49 1    
    90   45  107 1    
    91   46   47 1    
    92   46  108 1    
    93   46  109 1    
    94   47   48 1    
    95   48  110 1    
    96   48  111 1    
    97   49   50 am   BACKBONE|DICT|INTERRES
    98   49  112 1    
    99   50   51 2    
   100   50   52 1    
   101   52   53 1    
   102   52   54 1    
   103   52  113 1    
   104   53  114 1    
   105   53  115 1    
   106   53  116 1    
   107   54   55 am   BACKBONE|DICT|INTERRES
   108   54  117 1    
   109   55   56 2    
   110   55   57 1    
   111   57   58 1    
   112   57   59 1    
   113   57  118 1    
   114   58  119 1    
   115   58  120 1    
   116   58  121 1    
   117   59   60 am   BACKBONE|DICT|INTERRES
   118   59  122 1    
   119   60   61 2    
   120   60   62 1    
   121   62   63 1    
   122   62   64 1    
   123   62  123 1    
   124   63  124 1    
   125   63  125 1    
   126   63  126 1    
   127   64   65 am   BACKBONE|DICT|INTERRES
   128   64  127 1    
   129   65   66 2    
@<TRIPOS>SUBSTRUCTURE
     1 UNK         1 GROUP             0       ****    0 ROOT    
