@<TRIPOS>MOLECULE
3R135
127   129    1
SMALL
USER_CHARGES


@<TRIPOS>ATOM
      1 CA        -83.9810   24.7271  -68.6207 C.3       0 UNK        -0.1998 
      2 C         -83.0330   25.0074  -69.7775 C.2       0 UNK         0.4909 
      3 O         -82.1750   24.1751  -70.0744 O.2       0 UNK        -0.5240 
      4 N         -83.1864   26.1729  -70.4228 N.am      1 UNK        -0.4739 
      5 CA        -82.4077   26.6458  -71.5787 C.3       1 UNK         0.0864 
      6 C6        -80.9033   26.9002  -71.2618 C.3       11 UNK        -0.0881 
      7 S7        -80.6395   27.9470  -69.7886 S.3       11 UNK        -0.2682 
      8 C8        -80.7376   29.6275  -70.4854 C.3       11 UNK         0.0289 
      9 C9        -79.6156   29.9305  -71.4700 C.ar      11 UNK        -0.0687 
     10 C10       -79.9152   30.3199  -72.7791 C.ar      11 UNK        -0.0823 
     11 C11       -78.8959   30.6339  -73.6841 C.ar      11 UNK        -0.0830 
     12 C12       -77.5634   30.5610  -73.2600 C.ar      11 UNK        -0.1021 
     13 C13       -77.2503   30.1472  -71.9628 C.ar      11 UNK        -0.0753 
     14 C14       -78.2795   29.8435  -71.0687 C.ar      11 UNK        -0.0933 
     15 C15       -75.7994   30.0205  -71.5330 C.3       11 UNK         0.0166 
     16 S16       -75.0865   28.4609  -72.1365 S.3       11 UNK        -0.2615 
     17 C17       -73.4131   28.5581  -71.4166 C.3       11 UNK        -0.0865 
     18 CA        -72.4214   29.3806  -72.2800 C.3       10 UNK         0.0862 
     19 C         -71.0296   29.4333  -71.5922 C.2       10 UNK         0.5551 
     20 N         -70.7194   30.5196  -70.8980 N.am      10 UNK        -0.7319 
     21 O         -70.2569   28.4786  -71.6399 O.2       10 UNK        -0.5018 
     22 N         -72.3651   28.8713  -73.6563 N.am      10 UNK        -0.4509 
     23 C         -71.6723   29.4066  -74.6699 C.2       10 UNK         0.4899 
     24 O         -71.0127   30.4435  -74.5825 O.2       10 UNK        -0.4839 
     25 CA        -71.7653   28.6641  -76.0168 C.3       9 UNK         0.0222 
     26 CB        -70.6163   29.0070  -76.9888 C.3       9 UNK        -0.1966 
     27 N         -71.9199   27.2143  -75.8520 N.am      9 UNK        -0.4218 
     28 C         -71.0267   26.3476  -75.3473 C.2       9 UNK         0.5020 
     29 O         -69.8889   26.6503  -74.9877 O.2       9 UNK        -0.5274 
     30 CA        -71.4824   24.8860  -75.2221 C.3       8 UNK         0.0270 
     31 CB        -72.0831   24.6220  -73.8298 C.3       8 UNK        -0.1976 
     32 N         -72.4612   24.5460  -76.2589 N.am      8 UNK        -0.4313 
     33 C         -72.1445   23.9752  -77.4283 C.2       8 UNK         0.5041 
     34 O         -71.0093   23.5994  -77.7247 O.2       8 UNK        -0.5577 
     35 CA        -73.2803   23.7868  -78.4452 C.3       7 UNK         0.0284 
     36 CB        -74.1058   22.5317  -78.1168 C.3       7 UNK        -0.1958 
     37 N         -74.1695   24.9455  -78.5624 N.am      7 UNK        -0.4454 
     38 C         -73.8301   26.1108  -79.1335 C.2       7 UNK         0.5089 
     39 O         -72.6931   26.3772  -79.5223 O.2       7 UNK        -0.5125 
     40 CA        -74.9496   27.1441  -79.3355 C.3       6 UNK         0.0408 
     41 CB        -75.8131   26.7634  -80.5492 C.3       6 UNK        -0.1791 
     42 N         -75.8047   27.2504  -78.1540 N.am      6 UNK        -0.4762 
     43 C         -75.7957   28.2771  -77.2907 C.2       6 UNK         0.5007 
     44 O         -75.0935   29.2785  -77.4309 O.2       6 UNK        -0.5032 
     45 CA        -76.7008   28.1564  -76.0394 C.3       5 UNK         0.0783 
     46 C46       -78.1026   28.7686  -76.2985 C.3       11 UNK        -0.0857 
     47 S47       -78.0793   30.5924  -76.3968 S.3       11 UNK        -0.2512 
     48 C48       -79.2699   31.0751  -75.0987 C.3       11 UNK         0.0225 
     49 N         -76.8252   26.7795  -75.5479 N.am      5 UNK        -0.4615 
     50 C         -75.8118   25.9520  -75.2501 C.2       4 UNK         0.5053 
     51 O         -74.6231   26.2711  -75.2944 O.2       4 UNK        -0.5105 
     52 CA        -76.1744   24.4866  -74.9447 C.3       4 UNK         0.0263 
     53 CB        -76.3457   24.2919  -73.4307 C.3       4 UNK        -0.1981 
     54 N         -77.3789   24.0114  -75.6382 N.am      4 UNK        -0.4224 
     55 C         -77.6234   24.0998  -76.9558 C.2       3 UNK         0.4895 
     56 O         -76.7979   24.5046  -77.7748 O.2       3 UNK        -0.5091 
     57 CA        -79.0343   23.7392  -77.4541 C.3       3 UNK         0.0250 
     58 CB        -79.0068   22.3817  -78.1747 C.3       3 UNK        -0.1996 
     59 N         -80.0927   23.7218  -76.4349 N.am      3 UNK        -0.4254 
     60 C         -80.4325   24.7184  -75.6027 C.2       2 UNK         0.5004 
     61 O         -79.8304   25.7947  -75.5350 O.2       2 UNK        -0.5226 
     62 CA        -81.6278   24.4493  -74.6741 C.3       2 UNK         0.0269 
     63 CB        -81.6628   22.9980  -74.1414 C.3       2 UNK        -0.1926 
     64 N         -81.5955   25.3848  -73.5515 N.am      2 UNK        -0.4687 
     65 C         -82.6505   25.7304  -72.8038 C.2       1 UNK         0.5165 
     66 O         -83.7990   25.3498  -73.0480 O.2       1 UNK        -0.5079 
     67 H67       -83.4160   24.5815  -67.7004 H         1 UNK         0.0900 
     68 H68       -84.6836   25.5448  -68.4608 H         1 UNK         0.0900 
     69 H69       -84.5538   23.8210  -68.8165 H         1 UNK         0.0900 
     70 H70       -83.9304   26.7922  -70.1334 H         1 UNK         0.2959 
     71 H71       -82.8442   27.6064  -71.8561 H         1 UNK         0.1079 
     72 H72       -80.3867   25.9558  -71.0815 H         1 UNK         0.0837 
     73 H73       -80.3993   27.3626  -72.1120 H         1 UNK         0.0837 
     74 H74       -80.6878   30.3472  -69.6673 H         1 UNK         0.0685 
     75 H75       -81.7154   29.7612  -70.9503 H         1 UNK         0.0685 
     76 H76       -80.9482   30.3896  -73.0925 H         1 UNK         0.1434 
     77 H77       -76.7614   30.8107  -73.9404 H         1 UNK         0.1329 
     78 H78       -78.0432   29.5314  -70.0605 H         1 UNK         0.1335 
     79 H79       -75.7190   30.0633  -70.4456 H         1 UNK         0.0680 
     80 H80       -75.2240   30.8615  -71.9227 H         1 UNK         0.0680 
     81 H81       -73.0465   27.5373  -71.2903 H         1 UNK         0.1032 
     82 H82       -73.4847   28.9748  -70.4099 H         1 UNK         0.1032 
     83 H83       -72.8020   30.4016  -72.3468 H         1 UNK         0.0461 
     84 H84       -69.8277   30.5635  -70.4297 H         1 UNK         0.3453 
     85 H85       -71.3506   31.3041  -70.8457 H         1 UNK         0.3453 
     86 H86       -72.8913   28.0277  -73.8302 H         1 UNK         0.2984 
     87 H87       -72.6886   29.0087  -76.4801 H         1 UNK         0.0554 
     88 H88       -70.6151   30.0704  -77.2306 H         1 UNK         0.0847 
     89 H89       -70.7173   28.4624  -77.9278 H         1 UNK         0.0847 
     90 H90       -69.6397   28.7714  -76.5653 H         1 UNK         0.0847 
     91 H91       -72.8556   26.8615  -76.0233 H         1 UNK         0.3141 
     92 H92       -70.5981   24.2532  -75.3247 H         1 UNK         0.0743 
     93 H93       -71.3406   24.7997  -73.0506 H         1 UNK         0.0784 
     94 H94       -72.9328   25.2694  -73.6149 H         1 UNK         0.0784 
     95 H95       -72.4152   23.5885  -73.7306 H         1 UNK         0.0784 
     96 H96       -73.4089   24.8710  -76.1081 H         1 UNK         0.3213 
     97 H97       -72.8167   23.6304  -79.4219 H         1 UNK         0.0855 
     98 H98       -74.6178   22.6181  -77.1589 H         1 UNK         0.0814 
     99 H99       -73.4682   21.6480  -78.0666 H         1 UNK         0.0814 
    100 H100      -74.8602   22.3430  -78.8809 H         1 UNK         0.0814 
    101 H101      -75.1410   24.7988  -78.2907 H         1 UNK         0.3105 
    102 H102      -74.4771   28.1043  -79.5528 H         1 UNK         0.0547 
    103 H103      -76.3274   25.8128  -80.4012 H         1 UNK         0.0837 
    104 H104      -75.2029   26.6686  -81.4485 H         1 UNK         0.0837 
    105 H105      -76.5682   27.5235  -80.7497 H         1 UNK         0.0837 
    106 H106      -76.3767   26.4401  -77.9388 H         1 UNK         0.3020 
    107 H107      -76.2139   28.7186  -75.2396 H         1 UNK         0.1245 
    108 H108      -78.7853   28.4771  -75.4985 H         1 UNK         0.0781 
    109 H109      -78.5423   28.3691  -77.2145 H         1 UNK         0.0781 
    110 H110      -80.2484   30.6770  -75.3726 H         1 UNK         0.0836 
    111 H111      -79.3674   32.1613  -75.1057 H         1 UNK         0.0836 
    112 H112      -77.7700   26.4141  -75.4956 H         1 UNK         0.3022 
    113 H113      -75.3406   23.8663  -75.2752 H         1 UNK         0.0747 
    114 H114      -77.1915   24.8620  -73.0434 H         1 UNK         0.0793 
    115 H115      -76.5021   23.2428  -73.1790 H         1 UNK         0.0793 
    116 H116      -75.4569   24.6235  -72.8913 H         1 UNK         0.0793 
    117 H117      -78.1252   23.6679  -75.0525 H         1 UNK         0.3047 
    118 H118      -79.3087   24.5051  -78.1822 H         1 UNK         0.0822 
    119 H119      -79.9634   22.1631  -78.6496 H         1 UNK         0.0807 
    120 H120      -78.7760   21.5655  -77.4889 H         1 UNK         0.0807 
    121 H121      -78.2497   22.3700  -78.9607 H         1 UNK         0.0807 
    122 H122      -80.6420   22.8754  -76.3940 H         1 UNK         0.2946 
    123 H123      -82.5294   24.6359  -75.2623 H         1 UNK         0.1144 
    124 H124      -82.4844   22.8505  -73.4401 H         1 UNK         0.0793 
    125 H125      -80.7393   22.7378  -73.6222 H         1 UNK         0.0793 
    126 H126      -81.8101   22.2743  -74.9435 H         1 UNK         0.0793 
    127 H127      -80.6893   25.7947  -73.3687 H         1 UNK         0.2896 
@<TRIPOS>BOND
     1    1    2 1    
     2    1   67 1    
     3    1   68 1    
     4    1   69 1    
     5    2    3 2    
     6    2    4 am   BACKBONE|DICT|INTERRES
     7    4    5 1    
     8    4   70 1    
     9    5    6 1    
    10    5   65 1    
    11    5   71 1    
    12    6    7 1    
    13    6   72 1    
    14    6   73 1    
    15    7    8 1    
    16    8    9 1    
    17    8   74 1    
    18    8   75 1    
    19    9   10 ar   
    20    9   14 ar   
    21   10   11 ar   
    22   10   76 1    
    23   11   12 ar   
    24   11   48 1    
    25   12   13 ar   
    26   12   77 1    
    27   13   14 ar   
    28   13   15 1    
    29   14   78 1    
    30   15   16 1    
    31   15   79 1    
    32   15   80 1    
    33   16   17 1    
    34   17   18 1    
    35   17   81 1    
    36   17   82 1    
    37   18   19 1    
    38   18   22 1    
    39   18   83 1    
    40   19   20 am   BACKBONE|DICT|INTERRES
    41   19   21 2    
    42   20   84 1    
    43   20   85 1    
    44   22   23 am   BACKBONE|DICT|INTERRES
    45   22   86 1    
    46   23   24 2    
    47   23   25 1    
    48   25   26 1    
    49   25   27 1    
    50   25   87 1    
    51   26   88 1    
    52   26   89 1    
    53   26   90 1    
    54   27   28 am   BACKBONE|DICT|INTERRES
    55   27   91 1    
    56   28   29 2    
    57   28   30 1    
    58   30   31 1    
    59   30   32 1    
    60   30   92 1    
    61   31   93 1    
    62   31   94 1    
    63   31   95 1    
    64   32   33 am   BACKBONE|DICT|INTERRES
    65   32   96 1    
    66   33   34 2    
    67   33   35 1    
    68   35   36 1    
    69   35   37 1    
    70   35   97 1    
    71   36   98 1    
    72   36   99 1    
    73   36  100 1    
    74   37   38 am   BACKBONE|DICT|INTERRES
    75   37  101 1    
    76   38   39 2    
    77   38   40 1    
    78   40   41 1    
    79   40   42 1    
    80   40  102 1    
    81   41  103 1    
    82   41  104 1    
    83   41  105 1    
    84   42   43 am   BACKBONE|DICT|INTERRES
    85   42  106 1    
    86   43   44 2    
    87   43   45 1    
    88   45   46 1    
    89   45   49 1    
    90   45  107 1    
    91   46   47 1    
    92   46  108 1    
    93   46  109 1    
    94   47   48 1    
    95   48  110 1    
    96   48  111 1    
    97   49   50 am   BACKBONE|DICT|INTERRES
    98   49  112 1    
    99   50   51 2    
   100   50   52 1    
   101   52   53 1    
   102   52   54 1    
   103   52  113 1    
   104   53  114 1    
   105   53  115 1    
   106   53  116 1    
   107   54   55 am   BACKBONE|DICT|INTERRES
   108   54  117 1    
   109   55   56 2    
   110   55   57 1    
   111   57   58 1    
   112   57   59 1    
   113   57  118 1    
   114   58  119 1    
   115   58  120 1    
   116   58  121 1    
   117   59   60 am   BACKBONE|DICT|INTERRES
   118   59  122 1    
   119   60   61 2    
   120   60   62 1    
   121   62   63 1    
   122   62   64 1    
   123   62  123 1    
   124   63  124 1    
   125   63  125 1    
   126   63  126 1    
   127   64   65 am   BACKBONE|DICT|INTERRES
   128   64  127 1    
   129   65   66 2    
@<TRIPOS>SUBSTRUCTURE
     1 UNK         1 GROUP             0       ****    0 ROOT    
