@<TRIPOS>MOLECULE
3R135
127   129    1
SMALL
USER_CHARGES


@<TRIPOS>ATOM
      1 CA        -78.1381   31.3757  -75.7252 C.3       0 UNK        -0.1998 
      2 C         -78.7238   30.1480  -75.0461 C.2       0 UNK         0.4909 
      3 O         -78.0576   29.1148  -74.9800 O.2       0 UNK        -0.5240 
      4 N         -79.9555   30.2491  -74.5276 N.am      1 UNK        -0.4739 
      5 CA        -80.6732   29.1439  -73.8820 C.3       1 UNK         0.0864 
      6 C6        -81.8846   29.6524  -73.0593 C.3       11 UNK        -0.0881 
      7 S7        -82.4216   28.4876  -71.7565 S.3       11 UNK        -0.2682 
      8 C8        -81.4486   29.0296  -70.3089 C.3       11 UNK         0.0289 
      9 C9        -79.9919   28.6175  -70.4511 C.ar      11 UNK        -0.0687 
     10 C10       -79.6030   27.3075  -70.1588 C.ar      11 UNK        -0.0823 
     11 C11       -78.2944   26.8817  -70.4063 C.ar      11 UNK        -0.0830 
     12 C12       -77.3702   27.7881  -70.9404 C.ar      11 UNK        -0.1021 
     13 C13       -77.7479   29.1033  -71.2384 C.ar      11 UNK        -0.0753 
     14 C14       -79.0504   29.5208  -70.9509 C.ar      11 UNK        -0.0933 
     15 C15       -76.8083   30.0502  -71.9777 C.3       11 UNK         0.0166 
     16 S16       -75.4826   30.7337  -70.9422 S.3       11 UNK        -0.2615 
     17 C17       -74.0748   29.6352  -71.3210 C.3       11 UNK        -0.0865 
     18 CA        -73.1688   30.1691  -72.4688 C.3       10 UNK         0.0862 
     19 C         -71.7498   29.5283  -72.3733 C.2       10 UNK         0.5551 
     20 N         -71.3406   28.6635  -73.2935 N.am      10 UNK        -0.7319 
     21 O         -71.0071   29.8272  -71.4417 O.2       10 UNK        -0.5018 
     22 N         -73.8255   30.0479  -73.7878 N.am      10 UNK        -0.4509 
     23 C         -73.3859   30.5979  -74.9281 C.2       10 UNK         0.4899 
     24 O         -72.3987   31.3296  -75.0068 O.2       10 UNK        -0.4839 
     25 CA        -74.1334   30.2087  -76.2111 C.3       9 UNK         0.0222 
     26 CB        -74.4113   31.4224  -77.1173 C.3       9 UNK        -0.1966 
     27 N         -73.3151   29.2187  -76.9115 N.am      9 UNK        -0.4218 
     28 C         -73.7752   28.2627  -77.7295 C.2       9 UNK         0.5020 
     29 O         -74.9399   28.2120  -78.1247 O.2       9 UNK        -0.5274 
     30 CA        -72.7847   27.1700  -78.1743 C.3       8 UNK         0.0270 
     31 CB        -71.5399   27.0332  -77.2672 C.3       8 UNK        -0.1976 
     32 N         -73.4740   25.8775  -78.2785 N.am      8 UNK        -0.4313 
     33 C         -73.1289   24.8943  -79.1190 C.2       8 UNK         0.5041 
     34 O         -72.1559   24.9579  -79.8737 O.2       8 UNK        -0.5577 
     35 CA        -73.9887   23.6186  -79.0898 C.3       7 UNK         0.0284 
     36 CB        -73.5535   22.5714  -80.1375 C.3       7 UNK        -0.1958 
     37 N         -73.9664   23.0339  -77.7488 N.am      7 UNK        -0.4454 
     38 C         -74.9204   22.2425  -77.2400 C.2       7 UNK         0.5089 
     39 O         -75.8973   21.8510  -77.8809 O.2       7 UNK        -0.5125 
     40 CA        -74.7972   21.8336  -75.7628 C.3       6 UNK         0.0408 
     41 CB        -73.4061   22.0847  -75.1411 C.3       6 UNK        -0.1791 
     42 N         -75.8136   22.5716  -75.0229 N.am      6 UNK        -0.4762 
     43 C         -76.3742   22.2266  -73.8531 C.2       6 UNK         0.5007 
     44 O         -76.1223   21.1752  -73.2617 O.2       6 UNK        -0.5032 
     45 CA        -77.3731   23.2439  -73.2457 C.3       5 UNK         0.0783 
     46 C46       -77.6088   23.0762  -71.7176 C.3       11 UNK        -0.0857 
     47 S47       -78.8728   24.2426  -71.0902 S.3       11 UNK        -0.2512 
     48 C48       -77.8903   25.4388  -70.1160 C.3       11 UNK         0.0225 
     49 N         -77.0196   24.6105  -73.6429 N.am      5 UNK        -0.4615 
     50 C         -75.9192   25.2806  -73.2773 C.2       4 UNK         0.5053 
     51 O         -75.1373   24.8915  -72.4097 O.2       4 UNK        -0.5105 
     52 CA        -75.6117   26.5947  -74.0154 C.3       4 UNK         0.0263 
     53 CB        -74.1163   26.6605  -74.3839 C.3       4 UNK        -0.1981 
     54 N         -76.4783   26.8572  -75.1758 N.am      4 UNK        -0.4224 
     55 C         -76.5258   26.1694  -76.3246 C.2       3 UNK         0.4895 
     56 O         -75.7560   25.2478  -76.5930 O.2       3 UNK        -0.5091 
     57 CA        -77.6565   26.5421  -77.3032 C.3       3 UNK         0.0250 
     58 CB        -77.6109   25.7112  -78.6027 C.3       3 UNK        -0.1996 
     59 N         -78.9864   26.4540  -76.6840 N.am      3 UNK        -0.4254 
     60 C         -79.5306   25.4006  -76.0544 C.2       2 UNK         0.5004 
     61 O         -78.9640   24.3151  -75.9278 O.2       2 UNK        -0.5226 
     62 CA        -80.9089   25.6233  -75.3979 C.3       2 UNK         0.0269 
     63 CB        -81.3825   24.4037  -74.5843 C.3       2 UNK        -0.1926 
     64 N         -80.8683   26.7880  -74.5119 N.am      2 UNK        -0.4687 
     65 C         -81.0398   28.0549  -74.9068 C.2       1 UNK         0.5165 
     66 O         -81.3999   28.3712  -76.0435 O.2       1 UNK        -0.5079 
     67 H67       -77.2604   31.7203  -75.1795 H         1 UNK         0.0900 
     68 H68       -77.8325   31.1299  -76.7419 H         1 UNK         0.0900 
     69 H69       -78.8543   32.1956  -75.7736 H         1 UNK         0.0900 
     70 H70       -80.4742   31.1083  -74.6400 H         1 UNK         0.2959 
     71 H71       -79.9604   28.6813  -73.2018 H         1 UNK         0.1079 
     72 H72       -81.6401   30.5999  -72.5767 H         1 UNK         0.0837 
     73 H73       -82.7330   29.8681  -73.7118 H         1 UNK         0.0837 
     74 H74       -81.5400   30.1092  -70.1793 H         1 UNK         0.0685 
     75 H75       -81.8698   28.5769  -69.4101 H         1 UNK         0.0685 
     76 H76       -80.3314   26.6048  -69.7770 H         1 UNK         0.1434 
     77 H77       -76.3628   27.4584  -71.1421 H         1 UNK         0.1329 
     78 H78       -79.3582   30.5275  -71.1989 H         1 UNK         0.1335 
     79 H79       -77.3731   30.8929  -72.3790 H         1 UNK         0.0680 
     80 H80       -76.3899   29.5484  -72.8473 H         1 UNK         0.0680 
     81 H81       -73.5082   29.5538  -70.3908 H         1 UNK         0.1032 
     82 H82       -74.4199   28.6241  -71.5365 H         1 UNK         0.1032 
     83 H83       -73.0114   31.2360  -72.2977 H         1 UNK         0.0461 
     84 H84       -70.4188   28.2640  -73.2135 H         1 UNK         0.3453 
     85 H85       -71.9369   28.4097  -74.0599 H         1 UNK         0.3453 
     86 H86       -74.6427   29.4603  -73.8216 H         1 UNK         0.2984 
     87 H87       -75.0900   29.7579  -75.9351 H         1 UNK         0.0554 
     88 H88       -74.9763   32.1872  -76.5832 H         1 UNK         0.0847 
     89 H89       -74.9977   31.1370  -77.9908 H         1 UNK         0.0847 
     90 H90       -73.4884   31.8837  -77.4709 H         1 UNK         0.0847 
     91 H91       -72.3340   29.2197  -76.6664 H         1 UNK         0.3141 
     92 H92       -72.4495   27.4662  -79.1705 H         1 UNK         0.0743 
     93 H93       -71.8086   26.7828  -76.2411 H         1 UNK         0.0784 
     94 H94       -70.8755   26.2485  -77.6297 H         1 UNK         0.0784 
     95 H95       -70.9499   27.9501  -77.2488 H         1 UNK         0.0784 
     96 H96       -74.3096   25.7648  -77.7045 H         1 UNK         0.3213 
     97 H97       -75.0105   23.9285  -79.3201 H         1 UNK         0.0855 
     98 H98       -72.5472   22.2005  -79.9397 H         1 UNK         0.0814 
     99 H99       -73.5548   22.9984  -81.1412 H         1 UNK         0.0814 
    100 H100      -74.2286   21.7159  -80.1529 H         1 UNK         0.0814 
    101 H101      -73.2130   23.3384  -77.1482 H         1 UNK         0.3105 
    102 H102      -75.0176   20.7657  -75.7071 H         1 UNK         0.0547 
    103 H103      -73.3532   21.6808  -74.1299 H         1 UNK         0.0837 
    104 H104      -73.1705   23.1478  -75.0777 H         1 UNK         0.0837 
    105 H105      -72.6199   21.5960  -75.7182 H         1 UNK         0.0837 
    106 H106      -76.0995   23.4427  -75.4608 H         1 UNK         0.3020 
    107 H107      -78.3226   23.0248  -73.7363 H         1 UNK         0.1245 
    108 H108      -76.6787   23.1820  -71.1581 H         1 UNK         0.0781 
    109 H109      -77.9663   22.0673  -71.5051 H         1 UNK         0.0781 
    110 H110      -76.8262   25.3003  -70.3079 H         1 UNK         0.0836 
    111 H111      -78.0346   25.2326  -69.0547 H         1 UNK         0.0836 
    112 H112      -77.5888   24.9901  -74.3880 H         1 UNK         0.3022 
    113 H113      -75.8144   27.3976  -73.3130 H         1 UNK         0.0747 
    114 H114      -73.8862   27.5595  -74.9411 H         1 UNK         0.0793 
    115 H115      -73.4934   26.6640  -73.4885 H         1 UNK         0.0793 
    116 H116      -73.8052   25.8049  -74.9836 H         1 UNK         0.0793 
    117 H117      -77.1399   27.6292  -75.0647 H         1 UNK         0.3047 
    118 H118      -77.5059   27.5895  -77.5691 H         1 UNK         0.0822 
    119 H119      -78.4069   26.0012  -79.2882 H         1 UNK         0.0807 
    120 H120      -77.7085   24.6427  -78.4052 H         1 UNK         0.0807 
    121 H121      -76.6645   25.8624  -79.1233 H         1 UNK         0.0807 
    122 H122      -79.5274   27.3103  -76.6951 H         1 UNK         0.2946 
    123 H123      -81.6289   25.7923  -76.2022 H         1 UNK         0.1144 
    124 H124      -82.3716   24.5725  -74.1583 H         1 UNK         0.0793 
    125 H125      -80.7007   24.1738  -73.7645 H         1 UNK         0.0793 
    126 H126      -81.4497   23.5151  -75.2134 H         1 UNK         0.0793 
    127 H127      -80.5699   26.6136  -73.5620 H         1 UNK         0.2896 
@<TRIPOS>BOND
     1    1    2 1    
     2    1   67 1    
     3    1   68 1    
     4    1   69 1    
     5    2    3 2    
     6    2    4 am   BACKBONE|DICT|INTERRES
     7    4    5 1    
     8    4   70 1    
     9    5    6 1    
    10    5   65 1    
    11    5   71 1    
    12    6    7 1    
    13    6   72 1    
    14    6   73 1    
    15    7    8 1    
    16    8    9 1    
    17    8   74 1    
    18    8   75 1    
    19    9   10 ar   
    20    9   14 ar   
    21   10   11 ar   
    22   10   76 1    
    23   11   12 ar   
    24   11   48 1    
    25   12   13 ar   
    26   12   77 1    
    27   13   14 ar   
    28   13   15 1    
    29   14   78 1    
    30   15   16 1    
    31   15   79 1    
    32   15   80 1    
    33   16   17 1    
    34   17   18 1    
    35   17   81 1    
    36   17   82 1    
    37   18   19 1    
    38   18   22 1    
    39   18   83 1    
    40   19   20 am   BACKBONE|DICT|INTERRES
    41   19   21 2    
    42   20   84 1    
    43   20   85 1    
    44   22   23 am   BACKBONE|DICT|INTERRES
    45   22   86 1    
    46   23   24 2    
    47   23   25 1    
    48   25   26 1    
    49   25   27 1    
    50   25   87 1    
    51   26   88 1    
    52   26   89 1    
    53   26   90 1    
    54   27   28 am   BACKBONE|DICT|INTERRES
    55   27   91 1    
    56   28   29 2    
    57   28   30 1    
    58   30   31 1    
    59   30   32 1    
    60   30   92 1    
    61   31   93 1    
    62   31   94 1    
    63   31   95 1    
    64   32   33 am   BACKBONE|DICT|INTERRES
    65   32   96 1    
    66   33   34 2    
    67   33   35 1    
    68   35   36 1    
    69   35   37 1    
    70   35   97 1    
    71   36   98 1    
    72   36   99 1    
    73   36  100 1    
    74   37   38 am   BACKBONE|DICT|INTERRES
    75   37  101 1    
    76   38   39 2    
    77   38   40 1    
    78   40   41 1    
    79   40   42 1    
    80   40  102 1    
    81   41  103 1    
    82   41  104 1    
    83   41  105 1    
    84   42   43 am   BACKBONE|DICT|INTERRES
    85   42  106 1    
    86   43   44 2    
    87   43   45 1    
    88   45   46 1    
    89   45   49 1    
    90   45  107 1    
    91   46   47 1    
    92   46  108 1    
    93   46  109 1    
    94   47   48 1    
    95   48  110 1    
    96   48  111 1    
    97   49   50 am   BACKBONE|DICT|INTERRES
    98   49  112 1    
    99   50   51 2    
   100   50   52 1    
   101   52   53 1    
   102   52   54 1    
   103   52  113 1    
   104   53  114 1    
   105   53  115 1    
   106   53  116 1    
   107   54   55 am   BACKBONE|DICT|INTERRES
   108   54  117 1    
   109   55   56 2    
   110   55   57 1    
   111   57   58 1    
   112   57   59 1    
   113   57  118 1    
   114   58  119 1    
   115   58  120 1    
   116   58  121 1    
   117   59   60 am   BACKBONE|DICT|INTERRES
   118   59  122 1    
   119   60   61 2    
   120   60   62 1    
   121   62   63 1    
   122   62   64 1    
   123   62  123 1    
   124   63  124 1    
   125   63  125 1    
   126   63  126 1    
   127   64   65 am   BACKBONE|DICT|INTERRES
   128   64  127 1    
   129   65   66 2    
@<TRIPOS>SUBSTRUCTURE
     1 UNK         1 GROUP             0       ****    0 ROOT    
