@<TRIPOS>MOLECULE
3R135
127   129    1
SMALL
USER_CHARGES


@<TRIPOS>ATOM
      1 CA        -84.6908   30.4483  -75.1644 C.3       0 UNK        -0.1998 
      2 C         -83.6553   29.4572  -75.6739 C.2       0 UNK         0.4909 
      3 O         -83.6708   29.1066  -76.8541 O.2       0 UNK        -0.5240 
      4 N         -82.7547   29.0021  -74.7931 N.am      1 UNK        -0.4739 
      5 CA        -81.7019   28.0242  -75.0990 C.3       1 UNK         0.0864 
      6 C6        -80.5798   28.0434  -74.0294 C.3       11 UNK        -0.0881 
      7 S7        -81.1668   27.6455  -72.3418 S.3       11 UNK        -0.2682 
      8 C8        -80.2219   28.8252  -71.3287 C.3       11 UNK         0.0289 
      9 C9        -78.7228   28.5670  -71.3941 C.ar      11 UNK        -0.0687 
     10 C10       -78.1951   27.3588  -70.9278 C.ar      11 UNK        -0.0823 
     11 C11       -76.8198   27.1172  -70.9824 C.ar      11 UNK        -0.0830 
     12 C12       -75.9657   28.1141  -71.4585 C.ar      11 UNK        -0.1021 
     13 C13       -76.4807   29.3184  -71.9466 C.ar      11 UNK        -0.0753 
     14 C14       -77.8612   29.5383  -71.9140 C.ar      11 UNK        -0.0933 
     15 C15       -75.5462   30.3898  -72.4901 C.3       11 UNK         0.0166 
     16 S16       -75.1111   30.1228  -74.2432 S.3       11 UNK        -0.2615 
     17 C17       -74.0112   28.6625  -74.1840 C.3       11 UNK        -0.0865 
     18 CA        -72.6383   28.9514  -73.5162 C.3       10 UNK         0.0862 
     19 C         -71.8353   27.6482  -73.2339 C.2       10 UNK         0.5551 
     20 N         -70.5593   27.5494  -73.5896 N.am      10 UNK        -0.7319 
     21 O         -72.3775   26.7124  -72.6520 O.2       10 UNK        -0.5018 
     22 N         -71.8812   29.9638  -74.2643 N.am      10 UNK        -0.4509 
     23 C         -71.0696   30.8800  -73.7203 C.2       10 UNK         0.4899 
     24 O         -70.9444   31.0434  -72.5055 O.2       10 UNK        -0.4839 
     25 CA        -70.2588   31.7633  -74.6960 C.3       9 UNK         0.0222 
     26 CB        -68.9460   32.2839  -74.0718 C.3       9 UNK        -0.1966 
     27 N         -69.9988   31.1252  -75.9951 N.am      9 UNK        -0.4218 
     28 C         -69.3528   29.9695  -76.2073 C.2       9 UNK         0.5020 
     29 O         -68.8191   29.2958  -75.3221 O.2       9 UNK        -0.5274 
     30 CA        -69.3500   29.4516  -77.6553 C.3       8 UNK         0.0270 
     31 CB        -67.9385   29.5324  -78.2594 C.3       8 UNK        -0.1976 
     32 N         -69.8394   28.0720  -77.7371 N.am      8 UNK        -0.4313 
     33 C         -71.0439   27.6541  -77.3222 C.2       8 UNK         0.5041 
     34 O         -71.9005   28.4053  -76.8479 O.2       8 UNK        -0.5577 
     35 CA        -71.3089   26.1414  -77.4459 C.3       7 UNK         0.0284 
     36 CB        -70.5112   25.3474  -76.3973 C.3       7 UNK        -0.1958 
     37 N         -72.7220   25.7784  -77.3188 N.am      7 UNK        -0.4454 
     38 C         -73.6936   26.0899  -78.1803 C.2       7 UNK         0.5089 
     39 O         -73.5061   26.7550  -79.2007 O.2       7 UNK        -0.5125 
     40 CA        -75.1132   25.5454  -77.9097 C.3       6 UNK         0.0408 
     41 CB        -75.3671   24.2954  -78.7746 C.3       6 UNK        -0.1791 
     42 N         -75.5169   25.2735  -76.5170 N.am      6 UNK        -0.4762 
     43 C         -75.0033   24.4125  -75.6212 C.2       6 UNK         0.5007 
     44 O         -73.9091   23.8615  -75.7378 O.2       6 UNK        -0.5032 
     45 CA        -75.9075   24.0458  -74.4235 C.3       5 UNK         0.0783 
     46 C46       -75.7276   25.0255  -73.2390 C.3       11 UNK        -0.0857 
     47 S47       -76.6374   24.4626  -71.7581 S.3       11 UNK        -0.2512 
     48 C48       -76.2571   25.7722  -70.5486 C.3       11 UNK         0.0225 
     49 N         -77.3148   23.9166  -74.8281 N.am      5 UNK        -0.4615 
     50 C         -77.7907   22.9728  -75.6536 C.2       4 UNK         0.5053 
     51 O         -77.0928   22.0875  -76.1511 O.2       4 UNK        -0.5105 
     52 CA        -79.2956   23.0417  -75.9809 C.3       4 UNK         0.0263 
     53 CB        -79.8292   21.7552  -76.6466 C.3       4 UNK        -0.1981 
     54 N         -80.1287   23.4139  -74.8313 N.am      4 UNK        -0.4224 
     55 C         -80.2543   22.7527  -73.6669 C.2       3 UNK         0.4895 
     56 O         -79.6428   21.7203  -73.3904 O.2       3 UNK        -0.5091 
     57 CA        -81.2277   23.3357  -72.6226 C.3       3 UNK         0.0250 
     58 CB        -80.4438   24.0873  -71.5350 C.3       3 UNK        -0.1996 
     59 N         -82.2330   24.2349  -73.1963 N.am      3 UNK        -0.4254 
     60 C         -83.2239   23.8582  -74.0194 C.2       2 UNK         0.5004 
     61 O         -83.4783   22.6836  -74.2871 O.2       2 UNK        -0.5226 
     62 CA        -84.0546   24.9746  -74.6839 C.3       2 UNK         0.0269 
     63 CB        -85.4275   25.1019  -74.0039 C.3       2 UNK        -0.1926 
     64 N         -83.4047   26.2910  -74.6944 N.am      2 UNK        -0.4687 
     65 C         -82.2443   26.5923  -75.2990 C.2       1 UNK         0.5165 
     66 O         -81.5815   25.7771  -75.9424 O.2       1 UNK        -0.5079 
     67 H67       -84.6195   31.3835  -75.7191 H         1 UNK         0.0900 
     68 H68       -84.5561   30.6709  -74.1060 H         1 UNK         0.0900 
     69 H69       -85.6942   30.0461  -75.3014 H         1 UNK         0.0900 
     70 H70       -82.7835   29.3210  -73.8344 H         1 UNK         0.2959 
     71 H71       -81.2515   28.3129  -76.0517 H         1 UNK         0.1079 
     72 H72       -79.7812   27.3462  -74.2913 H         1 UNK         0.0837 
     73 H73       -80.1118   29.0290  -74.0230 H         1 UNK         0.0837 
     74 H74       -80.5507   28.7404  -70.2921 H         1 UNK         0.0685 
     75 H75       -80.4613   29.8417  -71.6448 H         1 UNK         0.0685 
     76 H76       -78.8588   26.5974  -70.5419 H         1 UNK         0.1434 
     77 H77       -74.8985   27.9408  -71.4707 H         1 UNK         0.1329 
     78 H78       -78.2630   30.4714  -72.2846 H         1 UNK         0.1335 
     79 H79       -76.0230   31.3676  -72.4062 H         1 UNK         0.0680 
     80 H80       -74.6478   30.4531  -71.8766 H         1 UNK         0.0680 
     81 H81       -74.5351   27.8475  -73.6899 H         1 UNK         0.1032 
     82 H82       -73.8637   28.3138  -75.2066 H         1 UNK         0.1032 
     83 H83       -72.8391   29.3479  -72.5216 H         1 UNK         0.0461 
     84 H84       -70.0560   26.7054  -73.3714 H         1 UNK         0.3453 
     85 H85       -70.0910   28.2994  -74.0858 H         1 UNK         0.3453 
     86 H86       -71.8884   29.8397  -75.2707 H         1 UNK         0.2984 
     87 H87       -70.8881   32.6292  -74.9061 H         1 UNK         0.0554 
     88 H88       -68.3964   32.9149  -74.7701 H         1 UNK         0.0847 
     89 H89       -68.2897   31.4670  -73.7698 H         1 UNK         0.0847 
     90 H90       -69.1446   32.8850  -73.1837 H         1 UNK         0.0847 
     91 H91       -70.4204   31.5834  -76.7920 H         1 UNK         0.3141 
     92 H92       -70.0179   30.0708  -78.2579 H         1 UNK         0.0743 
     93 H93       -67.5593   30.5548  -78.2284 H         1 UNK         0.0784 
     94 H94       -67.2301   28.9064  -77.7148 H         1 UNK         0.0784 
     95 H95       -67.9329   29.2179  -79.3033 H         1 UNK         0.0784 
     96 H96       -69.1843   27.3861  -78.0831 H         1 UNK         0.3213 
     97 H97       -70.9776   25.8325  -78.4396 H         1 UNK         0.0855 
     98 H98       -70.8920   25.5195  -75.3911 H         1 UNK         0.0814 
     99 H99       -69.4548   25.6189  -76.3996 H         1 UNK         0.0814 
    100 H100      -70.5679   24.2759  -76.5904 H         1 UNK         0.0814 
    101 H101      -72.9784   25.1698  -76.5452 H         1 UNK         0.3105 
    102 H102      -75.7970   26.3223  -78.2557 H         1 UNK         0.0547 
    103 H103      -74.7325   23.4610  -78.4735 H         1 UNK         0.0837 
    104 H104      -76.4043   23.9672  -78.7050 H         1 UNK         0.0837 
    105 H105      -75.1621   24.4960  -79.8272 H         1 UNK         0.0837 
    106 H106      -76.4013   25.6909  -76.2631 H         1 UNK         0.3020 
    107 H107      -75.5803   23.0585  -74.0879 H         1 UNK         0.1245 
    108 H108      -76.0795   26.0210  -73.5134 H         1 UNK         0.0781 
    109 H109      -74.6729   25.1248  -72.9747 H         1 UNK         0.0781 
    110 H110      -75.1766   25.8273  -70.4054 H         1 UNK         0.0836 
    111 H111      -76.6810   25.4969  -69.5818 H         1 UNK         0.0836 
    112 H112      -77.9605   24.5782  -74.4242 H         1 UNK         0.3022 
    113 H113      -79.4059   23.8509  -76.7046 H         1 UNK         0.0747 
    114 H114      -80.8887   21.8442  -76.8870 H         1 UNK         0.0793 
    115 H115      -79.3025   21.5490  -77.5792 H         1 UNK         0.0793 
    116 H116      -79.7034   20.8841  -76.0027 H         1 UNK         0.0793 
    117 H117      -80.6907   24.2480  -74.9710 H         1 UNK         0.3047 
    118 H118      -81.7511   22.4984  -72.1561 H         1 UNK         0.0822 
    119 H119      -79.7372   23.4239  -71.0344 H         1 UNK         0.0807 
    120 H120      -81.1059   24.4932  -70.7699 H         1 UNK         0.0807 
    121 H121      -79.8678   24.9117  -71.9562 H         1 UNK         0.0807 
    122 H122      -82.1148   25.2224  -73.0156 H         1 UNK         0.2946 
    123 H123      -84.2098   24.6764  -75.7232 H         1 UNK         0.1144 
    124 H124      -85.9549   24.1468  -74.0055 H         1 UNK         0.0793 
    125 H125      -86.0628   25.8203  -74.5224 H         1 UNK         0.0793 
    126 H126      -85.3350   25.4214  -72.9651 H         1 UNK         0.0793 
    127 H127      -83.8625   27.0266  -74.1755 H         1 UNK         0.2896 
@<TRIPOS>BOND
     1    1    2 1    
     2    1   67 1    
     3    1   68 1    
     4    1   69 1    
     5    2    3 2    
     6    2    4 am   BACKBONE|DICT|INTERRES
     7    4    5 1    
     8    4   70 1    
     9    5    6 1    
    10    5   65 1    
    11    5   71 1    
    12    6    7 1    
    13    6   72 1    
    14    6   73 1    
    15    7    8 1    
    16    8    9 1    
    17    8   74 1    
    18    8   75 1    
    19    9   10 ar   
    20    9   14 ar   
    21   10   11 ar   
    22   10   76 1    
    23   11   12 ar   
    24   11   48 1    
    25   12   13 ar   
    26   12   77 1    
    27   13   14 ar   
    28   13   15 1    
    29   14   78 1    
    30   15   16 1    
    31   15   79 1    
    32   15   80 1    
    33   16   17 1    
    34   17   18 1    
    35   17   81 1    
    36   17   82 1    
    37   18   19 1    
    38   18   22 1    
    39   18   83 1    
    40   19   20 am   BACKBONE|DICT|INTERRES
    41   19   21 2    
    42   20   84 1    
    43   20   85 1    
    44   22   23 am   BACKBONE|DICT|INTERRES
    45   22   86 1    
    46   23   24 2    
    47   23   25 1    
    48   25   26 1    
    49   25   27 1    
    50   25   87 1    
    51   26   88 1    
    52   26   89 1    
    53   26   90 1    
    54   27   28 am   BACKBONE|DICT|INTERRES
    55   27   91 1    
    56   28   29 2    
    57   28   30 1    
    58   30   31 1    
    59   30   32 1    
    60   30   92 1    
    61   31   93 1    
    62   31   94 1    
    63   31   95 1    
    64   32   33 am   BACKBONE|DICT|INTERRES
    65   32   96 1    
    66   33   34 2    
    67   33   35 1    
    68   35   36 1    
    69   35   37 1    
    70   35   97 1    
    71   36   98 1    
    72   36   99 1    
    73   36  100 1    
    74   37   38 am   BACKBONE|DICT|INTERRES
    75   37  101 1    
    76   38   39 2    
    77   38   40 1    
    78   40   41 1    
    79   40   42 1    
    80   40  102 1    
    81   41  103 1    
    82   41  104 1    
    83   41  105 1    
    84   42   43 am   BACKBONE|DICT|INTERRES
    85   42  106 1    
    86   43   44 2    
    87   43   45 1    
    88   45   46 1    
    89   45   49 1    
    90   45  107 1    
    91   46   47 1    
    92   46  108 1    
    93   46  109 1    
    94   47   48 1    
    95   48  110 1    
    96   48  111 1    
    97   49   50 am   BACKBONE|DICT|INTERRES
    98   49  112 1    
    99   50   51 2    
   100   50   52 1    
   101   52   53 1    
   102   52   54 1    
   103   52  113 1    
   104   53  114 1    
   105   53  115 1    
   106   53  116 1    
   107   54   55 am   BACKBONE|DICT|INTERRES
   108   54  117 1    
   109   55   56 2    
   110   55   57 1    
   111   57   58 1    
   112   57   59 1    
   113   57  118 1    
   114   58  119 1    
   115   58  120 1    
   116   58  121 1    
   117   59   60 am   BACKBONE|DICT|INTERRES
   118   59  122 1    
   119   60   61 2    
   120   60   62 1    
   121   62   63 1    
   122   62   64 1    
   123   62  123 1    
   124   63  124 1    
   125   63  125 1    
   126   63  126 1    
   127   64   65 am   BACKBONE|DICT|INTERRES
   128   64  127 1    
   129   65   66 2    
@<TRIPOS>SUBSTRUCTURE
     1 UNK         1 GROUP             0       ****    0 ROOT    
