@<TRIPOS>MOLECULE
3R135
127   129    1
SMALL
USER_CHARGES


@<TRIPOS>ATOM
      1 CA        -79.6163   31.3921  -75.9792 C.3       0 UNK        -0.1998 
      2 C         -79.6957   29.9681  -75.4512 C.2       0 UNK         0.4909 
      3 O         -80.5926   29.2205  -75.8428 O.2       0 UNK        -0.5240 
      4 N         -78.7450   29.5817  -74.5881 N.am      1 UNK        -0.4739 
      5 CA        -78.6342   28.2685  -73.9244 C.3       1 UNK         0.0864 
      6 C6        -79.8481   27.9255  -73.0106 C.3       11 UNK        -0.0881 
      7 S7        -80.1607   29.2021  -71.7419 S.3       11 UNK        -0.2682 
      8 C8        -79.5889   28.3766  -70.2189 C.3       11 UNK         0.0289 
      9 C9        -78.1416   27.9089  -70.3097 C.ar      11 UNK        -0.0687 
     10 C10       -77.8241   26.5643  -70.1037 C.ar      11 UNK        -0.0823 
     11 C11       -76.5030   26.1227  -70.2121 C.ar      11 UNK        -0.0830 
     12 C12       -75.4954   27.0398  -70.5244 C.ar      11 UNK        -0.1021 
     13 C13       -75.7911   28.3923  -70.7241 C.ar      11 UNK        -0.0753 
     14 C14       -77.1217   28.8171  -70.6069 C.ar      11 UNK        -0.0933 
     15 C15       -74.6508   29.3385  -71.1050 C.3       11 UNK         0.0166 
     16 S16       -75.0260   31.1172  -70.9529 S.3       11 UNK        -0.2615 
     17 C17       -73.5870   31.8544  -71.7914 C.3       11 UNK        -0.0865 
     18 CA        -73.9211   32.3166  -73.2348 C.3       10 UNK         0.0862 
     19 C         -72.8325   33.2886  -73.7570 C.2       10 UNK         0.5551 
     20 N         -72.9888   34.5822  -73.5142 N.am      10 UNK        -0.7319 
     21 O         -71.8345   32.8790  -74.3485 O.2       10 UNK        -0.5018 
     22 N         -74.0417   31.1845  -74.1630 N.am      10 UNK        -0.4509 
     23 C         -75.1599   30.7872  -74.7808 C.2       10 UNK         0.4899 
     24 O         -76.2870   31.2144  -74.5289 O.2       10 UNK        -0.4839 
     25 CA        -74.9905   29.7413  -75.8965 C.3       9 UNK         0.0222 
     26 CB        -74.7143   30.4355  -77.2397 C.3       9 UNK        -0.1966 
     27 N         -73.9263   28.7745  -75.6183 N.am      9 UNK        -0.4218 
     28 C         -74.0265   27.7757  -74.7333 C.2       9 UNK         0.5020 
     29 O         -75.0617   27.4947  -74.1291 O.2       9 UNK        -0.5274 
     30 CA        -72.7508   26.9504  -74.5063 C.3       8 UNK         0.0270 
     31 CB        -72.7410   26.2335  -73.1465 C.3       8 UNK        -0.1976 
     32 N         -72.5854   25.9689  -75.5765 N.am      8 UNK        -0.4313 
     33 C         -72.0289   26.2439  -76.7644 C.2       8 UNK         0.5041 
     34 O         -71.5956   27.3577  -77.0666 O.2       8 UNK        -0.5577 
     35 CA        -71.9244   25.0993  -77.7877 C.3       7 UNK         0.0284 
     36 CB        -70.5338   24.4473  -77.7224 C.3       7 UNK        -0.1958 
     37 N         -72.9485   24.0676  -77.6144 N.am      7 UNK        -0.4454 
     38 C         -74.2466   24.2329  -77.8995 C.2       7 UNK         0.5089 
     39 O         -74.7084   25.2689  -78.3738 O.2       7 UNK        -0.5125 
     40 CA        -75.1869   23.0427  -77.6275 C.3       6 UNK         0.0408 
     41 CB        -74.4847   21.6717  -77.7473 C.3       6 UNK        -0.1791 
     42 N         -75.8996   23.1344  -76.3463 N.am      6 UNK        -0.4762 
     43 C         -75.3702   23.2688  -75.1195 C.2       6 UNK         0.5007 
     44 O         -74.1715   23.4753  -74.9165 O.2       6 UNK        -0.5032 
     45 CA        -76.3231   23.0891  -73.9182 C.3       5 UNK         0.0783 
     46 C46       -75.9243   23.9624  -72.7011 C.3       11 UNK        -0.0857 
     47 S47       -76.9210   23.5685  -71.2248 S.3       11 UNK        -0.2512 
     48 C48       -76.1663   24.6569  -69.9766 C.3       11 UNK         0.0225 
     49 N         -77.7289   23.2948  -74.2869 N.am      5 UNK        -0.4615 
     50 C         -78.6656   22.3383  -74.2920 C.2       4 UNK         0.5053 
     51 O         -78.4176   21.1360  -74.1993 O.2       4 UNK        -0.5105 
     52 CA        -80.1289   22.7928  -74.3914 C.3       4 UNK         0.0263 
     53 CB        -80.6168   23.3065  -73.0255 C.3       4 UNK        -0.1981 
     54 N         -80.3024   23.8490  -75.3880 N.am      4 UNK        -0.4224 
     55 C         -81.0405   23.7417  -76.5024 C.2       3 UNK         0.4895 
     56 O         -81.6819   22.7352  -76.8072 O.2       3 UNK        -0.5091 
     57 CA        -81.0861   24.9607  -77.4464 C.3       3 UNK         0.0250 
     58 CB        -82.3703   25.7721  -77.2108 C.3       3 UNK        -0.1996 
     59 N         -79.9324   25.8529  -77.3176 N.am      3 UNK        -0.4254 
     60 C         -78.6667   25.5166  -77.6042 C.2       2 UNK         0.5004 
     61 O         -78.3430   24.4390  -78.1022 O.2       2 UNK        -0.5226 
     62 CA        -77.5748   26.5337  -77.2311 C.3       2 UNK         0.0269 
     63 CB        -77.1739   27.3597  -78.4633 C.3       2 UNK        -0.1926 
     64 N         -77.9353   27.4502  -76.1461 N.am      2 UNK        -0.4687 
     65 C         -78.3198   27.1159  -74.9052 C.2       1 UNK         0.5165 
     66 O         -78.4552   25.9473  -74.5392 O.2       1 UNK        -0.5079 
     67 H67       -78.7835   31.9429  -75.5420 H         1 UNK         0.0900 
     68 H68       -80.5357   31.9287  -75.7469 H         1 UNK         0.0900 
     69 H69       -79.4887   31.3853  -77.0613 H         1 UNK         0.0900 
     70 H70       -78.0050   30.2387  -74.3539 H         1 UNK         0.2959 
     71 H71       -77.7486   28.3325  -73.2905 H         1 UNK         0.1079 
     72 H72       -80.7556   27.8060  -73.6042 H         1 UNK         0.0837 
     73 H73       -79.6973   26.9668  -72.5107 H         1 UNK         0.0837 
     74 H74       -79.6849   29.0713  -69.3836 H         1 UNK         0.0685 
     75 H75       -80.2561   27.5405  -70.0033 H         1 UNK         0.0685 
     76 H76       -78.6049   25.8534  -69.8698 H         1 UNK         0.1434 
     77 H77       -74.4741   26.6980  -70.6169 H         1 UNK         0.1329 
     78 H78       -77.3875   29.8506  -70.7748 H         1 UNK         0.1335 
     79 H79       -73.7761   29.1192  -70.4907 H         1 UNK         0.0680 
     80 H80       -74.3685   29.1318  -72.1359 H         1 UNK         0.0680 
     81 H81       -72.7451   31.1595  -71.7865 H         1 UNK         0.1032 
     82 H82       -73.2747   32.7033  -71.1796 H         1 UNK         0.1032 
     83 H83       -74.8615   32.8719  -73.2146 H         1 UNK         0.0461 
     84 H84       -73.7984   34.9271  -73.0216 H         1 UNK         0.3453 
     85 H85       -72.2851   35.2294  -73.8344 H         1 UNK         0.3453 
     86 H86       -73.1588   30.8120  -74.4823 H         1 UNK         0.2984 
     87 H87       -75.9307   29.1990  -75.9861 H         1 UNK         0.0554 
     88 H88       -74.6239   29.7144  -78.0520 H         1 UNK         0.0847 
     89 H89       -73.7948   31.0218  -77.2119 H         1 UNK         0.0847 
     90 H90       -75.5262   31.1162  -77.5001 H         1 UNK         0.0847 
     91 H91       -73.0581   28.8687  -76.1320 H         1 UNK         0.3141 
     92 H92       -71.9007   27.6365  -74.5097 H         1 UNK         0.0743 
     93 H93       -72.8175   26.9524  -72.3307 H         1 UNK         0.0784 
     94 H94       -73.5732   25.5398  -73.0524 H         1 UNK         0.0784 
     95 H95       -71.8185   25.6718  -72.9994 H         1 UNK         0.0784 
     96 H96       -72.9864   25.0485  -75.4183 H         1 UNK         0.3213 
     97 H97       -72.0487   25.5383  -78.7802 H         1 UNK         0.0855 
     98 H98       -69.7485   25.1890  -77.8760 H         1 UNK         0.0814 
     99 H99       -70.4142   23.6873  -78.4948 H         1 UNK         0.0814 
    100 H100      -70.3523   23.9770  -76.7550 H         1 UNK         0.0814 
    101 H101      -72.6586   23.1963  -77.1940 H         1 UNK         0.3105 
    102 H102      -75.9515   23.0798  -78.4049 H         1 UNK         0.0547 
    103 H103      -73.9437   21.5870  -78.6909 H         1 UNK         0.0837 
    104 H104      -73.7740   21.4938  -76.9399 H         1 UNK         0.0837 
    105 H105      -75.2120   20.8601  -77.7249 H         1 UNK         0.0837 
    106 H106      -76.9035   23.0262  -76.4055 H         1 UNK         0.3020 
    107 H107      -76.1771   22.0497  -73.6157 H         1 UNK         0.1245 
    108 H108      -76.0300   25.0242  -72.9348 H         1 UNK         0.0781 
    109 H109      -74.8801   23.7942  -72.4345 H         1 UNK         0.0781 
    110 H110      -75.0870   24.4968  -69.9621 H         1 UNK         0.0836 
    111 H111      -76.5307   24.3653  -68.9907 H         1 UNK         0.0836 
    112 H112      -78.0143   24.2706  -74.3601 H         1 UNK         0.3022 
    113 H113      -80.7244   21.9157  -74.6533 H         1 UNK         0.0747 
    114 H114      -81.6741   23.5695  -73.0570 H         1 UNK         0.0793 
    115 H115      -80.4940   22.5443  -72.2547 H         1 UNK         0.0793 
    116 H116      -80.0617   24.1886  -72.7020 H         1 UNK         0.0793 
    117 H117      -79.7856   24.7077  -75.2258 H         1 UNK         0.3047 
    118 H118      -81.1006   24.5795  -78.4697 H         1 UNK         0.0822 
    119 H119      -82.4619   26.5881  -77.9280 H         1 UNK         0.0807 
    120 H120      -82.3976   26.2020  -76.2085 H         1 UNK         0.0807 
    121 H121      -83.2559   25.1445  -77.3215 H         1 UNK         0.0807 
    122 H122      -80.1023   26.7654  -76.9156 H         1 UNK         0.2946 
    123 H123      -76.7098   25.9628  -76.8900 H         1 UNK         0.1144 
    124 H124      -76.2953   27.9701  -78.2588 H         1 UNK         0.0793 
    125 H125      -77.9790   28.0180  -78.7916 H         1 UNK         0.0793 
    126 H126      -76.9193   26.7103  -79.3024 H         1 UNK         0.0793 
    127 H127      -77.8898   28.4357  -76.3569 H         1 UNK         0.2896 
@<TRIPOS>BOND
     1    1    2 1    
     2    1   67 1    
     3    1   68 1    
     4    1   69 1    
     5    2    3 2    
     6    2    4 am   BACKBONE|DICT|INTERRES
     7    4    5 1    
     8    4   70 1    
     9    5    6 1    
    10    5   65 1    
    11    5   71 1    
    12    6    7 1    
    13    6   72 1    
    14    6   73 1    
    15    7    8 1    
    16    8    9 1    
    17    8   74 1    
    18    8   75 1    
    19    9   10 ar   
    20    9   14 ar   
    21   10   11 ar   
    22   10   76 1    
    23   11   12 ar   
    24   11   48 1    
    25   12   13 ar   
    26   12   77 1    
    27   13   14 ar   
    28   13   15 1    
    29   14   78 1    
    30   15   16 1    
    31   15   79 1    
    32   15   80 1    
    33   16   17 1    
    34   17   18 1    
    35   17   81 1    
    36   17   82 1    
    37   18   19 1    
    38   18   22 1    
    39   18   83 1    
    40   19   20 am   BACKBONE|DICT|INTERRES
    41   19   21 2    
    42   20   84 1    
    43   20   85 1    
    44   22   23 am   BACKBONE|DICT|INTERRES
    45   22   86 1    
    46   23   24 2    
    47   23   25 1    
    48   25   26 1    
    49   25   27 1    
    50   25   87 1    
    51   26   88 1    
    52   26   89 1    
    53   26   90 1    
    54   27   28 am   BACKBONE|DICT|INTERRES
    55   27   91 1    
    56   28   29 2    
    57   28   30 1    
    58   30   31 1    
    59   30   32 1    
    60   30   92 1    
    61   31   93 1    
    62   31   94 1    
    63   31   95 1    
    64   32   33 am   BACKBONE|DICT|INTERRES
    65   32   96 1    
    66   33   34 2    
    67   33   35 1    
    68   35   36 1    
    69   35   37 1    
    70   35   97 1    
    71   36   98 1    
    72   36   99 1    
    73   36  100 1    
    74   37   38 am   BACKBONE|DICT|INTERRES
    75   37  101 1    
    76   38   39 2    
    77   38   40 1    
    78   40   41 1    
    79   40   42 1    
    80   40  102 1    
    81   41  103 1    
    82   41  104 1    
    83   41  105 1    
    84   42   43 am   BACKBONE|DICT|INTERRES
    85   42  106 1    
    86   43   44 2    
    87   43   45 1    
    88   45   46 1    
    89   45   49 1    
    90   45  107 1    
    91   46   47 1    
    92   46  108 1    
    93   46  109 1    
    94   47   48 1    
    95   48  110 1    
    96   48  111 1    
    97   49   50 am   BACKBONE|DICT|INTERRES
    98   49  112 1    
    99   50   51 2    
   100   50   52 1    
   101   52   53 1    
   102   52   54 1    
   103   52  113 1    
   104   53  114 1    
   105   53  115 1    
   106   53  116 1    
   107   54   55 am   BACKBONE|DICT|INTERRES
   108   54  117 1    
   109   55   56 2    
   110   55   57 1    
   111   57   58 1    
   112   57   59 1    
   113   57  118 1    
   114   58  119 1    
   115   58  120 1    
   116   58  121 1    
   117   59   60 am   BACKBONE|DICT|INTERRES
   118   59  122 1    
   119   60   61 2    
   120   60   62 1    
   121   62   63 1    
   122   62   64 1    
   123   62  123 1    
   124   63  124 1    
   125   63  125 1    
   126   63  126 1    
   127   64   65 am   BACKBONE|DICT|INTERRES
   128   64  127 1    
   129   65   66 2    
@<TRIPOS>SUBSTRUCTURE
     1 UNK         1 GROUP             0       ****    0 ROOT    
