@<TRIPOS>MOLECULE
3R135
127   129    1
SMALL
USER_CHARGES


@<TRIPOS>ATOM
      1 CA        -84.3358   25.3080  -73.8537 C.3       0 UNK        -0.1998 
      2 C         -83.3489   26.4503  -74.0390 C.2       0 UNK         0.4909 
      3 O         -83.1434   26.9065  -75.1646 O.2       0 UNK        -0.5240 
      4 N         -82.7401   26.9225  -72.9434 N.am      1 UNK        -0.4739 
      5 CA        -81.7309   27.9862  -72.9465 C.3       1 UNK         0.0864 
      6 C6        -81.4929   28.5772  -71.5329 C.3       11 UNK        -0.0881 
      7 S7        -81.0479   27.3518  -70.2506 S.3       11 UNK        -0.2682 
      8 C8        -79.5765   28.1128  -69.4921 C.3       11 UNK         0.0289 
      9 C9        -78.3204   27.8983  -70.3248 C.ar      11 UNK        -0.0687 
     10 C10       -77.6552   26.6700  -70.2743 C.ar      11 UNK        -0.0823 
     11 C11       -76.4850   26.4633  -71.0100 C.ar      11 UNK        -0.0830 
     12 C12       -75.9850   27.4949  -71.8078 C.ar      11 UNK        -0.1021 
     13 C13       -76.6319   28.7328  -71.8581 C.ar      11 UNK        -0.0753 
     14 C14       -77.8014   28.9288  -71.1155 C.ar      11 UNK        -0.0933 
     15 C15       -76.0766   29.8499  -72.7286 C.3       11 UNK         0.0166 
     16 S16       -74.4835   30.4726  -72.1131 S.3       11 UNK        -0.2615 
     17 C17       -74.3358   32.0139  -73.0812 C.3       11 UNK        -0.0865 
     18 CA        -73.8881   31.8015  -74.5591 C.3       10 UNK         0.0862 
     19 C         -73.9182   33.1243  -75.3838 C.2       10 UNK         0.5551 
     20 N         -73.0363   33.3147  -76.3582 N.am      10 UNK        -0.7319 
     21 O         -74.7708   33.9801  -75.1609 O.2       10 UNK        -0.5018 
     22 N         -72.6434   31.0229  -74.6982 N.am      10 UNK        -0.4509 
     23 C         -71.4367   31.3464  -74.2173 C.2       10 UNK         0.4899 
     24 O         -71.2138   32.3612  -73.5556 O.2       10 UNK        -0.4839 
     25 CA        -70.2834   30.3708  -74.5377 C.3       9 UNK         0.0222 
     26 CB        -69.0000   30.6948  -73.7485 C.3       9 UNK        -0.1966 
     27 N         -70.6386   28.9654  -74.3073 N.am      9 UNK        -0.4218 
     28 C         -71.3531   28.1965  -75.1378 C.2       9 UNK         0.5020 
     29 O         -71.8501   28.6012  -76.1925 O.2       9 UNK        -0.5274 
     30 CA        -71.5867   26.7493  -74.6980 C.3       8 UNK         0.0270 
     31 CB        -72.8207   26.6449  -73.7862 C.3       8 UNK        -0.1976 
     32 N         -71.7835   25.9262  -75.8867 N.am      8 UNK        -0.4313 
     33 C         -71.4386   24.6410  -76.0047 C.2       8 UNK         0.5041 
     34 O         -70.9477   23.9779  -75.0883 O.2       8 UNK        -0.5577 
     35 CA        -71.7227   23.9849  -77.3660 C.3       7 UNK         0.0284 
     36 CB        -71.0562   22.6038  -77.5110 C.3       7 UNK        -0.1958 
     37 N         -73.1640   23.8319  -77.5456 N.am      7 UNK        -0.4454 
     38 C         -73.9883   24.7436  -78.0699 C.2       7 UNK         0.5089 
     39 O         -73.6088   25.8288  -78.5113 O.2       7 UNK        -0.5125 
     40 CA        -75.4883   24.3976  -78.0880 C.3       6 UNK         0.0408 
     41 CB        -75.8007   23.2511  -79.0691 C.3       6 UNK        -0.1791 
     42 N         -76.0593   24.1431  -76.7587 N.am      6 UNK        -0.4762 
     43 C         -75.7831   23.1556  -75.8925 C.2       6 UNK         0.5007 
     44 O         -74.9703   22.2561  -76.1126 O.2       6 UNK        -0.5032 
     45 CA        -76.5481   23.1623  -74.5577 C.3       5 UNK         0.0783 
     46 C46       -75.8965   24.1207  -73.5340 C.3       11 UNK        -0.0857 
     47 S47       -76.5709   23.8311  -71.8663 S.3       11 UNK        -0.2512 
     48 C48       -75.7479   25.1371  -70.9077 C.3       11 UNK         0.0225 
     49 N         -77.9668   23.4608  -74.7644 N.am      5 UNK        -0.4615 
     50 C         -78.8844   22.5493  -75.1091 C.2       4 UNK         0.5053 
     51 O         -78.6391   21.3541  -75.2756 O.2       4 UNK        -0.5105 
     52 CA        -80.3218   23.0568  -75.3004 C.3       4 UNK         0.0263 
     53 CB        -81.0608   23.1062  -73.9535 C.3       4 UNK        -0.1981 
     54 N         -80.3567   24.3725  -75.9439 N.am      4 UNK        -0.4224 
     55 C         -80.1113   24.5627  -77.2503 C.2       3 UNK         0.4895 
     56 O         -79.9101   23.6440  -78.0454 O.2       3 UNK        -0.5091 
     57 CA        -80.0781   26.0090  -77.7766 C.3       3 UNK         0.0250 
     58 CB        -81.4109   26.3640  -78.4554 C.3       3 UNK        -0.1996 
     59 N         -79.7773   27.0129  -76.7546 N.am      3 UNK        -0.4254 
     60 C         -78.6047   27.1319  -76.1159 C.2       2 UNK         0.5004 
     61 O         -77.6387   26.3961  -76.3084 O.2       2 UNK        -0.5226 
     62 CA        -78.5058   28.2319  -75.0475 C.3       2 UNK         0.0269 
     63 CB        -78.0425   29.5495  -75.6914 C.3       2 UNK        -0.1926 
     64 N         -79.7536   28.4638  -74.3114 N.am      2 UNK        -0.4687 
     65 C         -80.4245   27.5264  -73.6259 C.2       1 UNK         0.5165 
     66 O         -80.0649   26.3484  -73.5497 O.2       1 UNK        -0.5079 
     67 H67       -84.1934   24.5560  -74.6292 H         1 UNK         0.0900 
     68 H68       -85.3570   25.6808  -73.9270 H         1 UNK         0.0900 
     69 H69       -84.2159   24.8229  -72.8851 H         1 UNK         0.0900 
     70 H70       -82.9063   26.4904  -72.0455 H         1 UNK         0.2959 
     71 H71       -82.1379   28.7926  -73.5614 H         1 UNK         0.1079 
     72 H72       -80.7378   29.3637  -71.5755 H         1 UNK         0.0837 
     73 H73       -82.4037   29.0761  -71.1984 H         1 UNK         0.0837 
     74 H74       -79.7558   29.1756  -69.3220 H         1 UNK         0.0685 
     75 H75       -79.4290   27.6724  -68.5048 H         1 UNK         0.0685 
     76 H76       -78.0479   25.8731  -69.6573 H         1 UNK         0.1434 
     77 H77       -75.0807   27.3451  -72.3769 H         1 UNK         0.1329 
     78 H78       -78.3059   29.8844  -71.1498 H         1 UNK         0.1335 
     79 H79       -76.7906   30.6724  -72.7900 H         1 UNK         0.0680 
     80 H80       -75.9331   29.4781  -73.7430 H         1 UNK         0.0680 
     81 H81       -73.6350   32.6712  -72.5647 H         1 UNK         0.1032 
     82 H82       -75.2961   32.5308  -73.0417 H         1 UNK         0.1032 
     83 H83       -74.6512   31.1834  -75.0321 H         1 UNK         0.0461 
     84 H84       -72.3419   32.6139  -76.5620 H         1 UNK         0.3453 
     85 H85       -73.0687   34.1653  -76.8949 H         1 UNK         0.3453 
     86 H86       -72.7037   30.1842  -75.2655 H         1 UNK         0.2984 
     87 H87       -70.0536   30.4978  -75.5977 H         1 UNK         0.0554 
     88 H88       -68.1852   30.0232  -74.0198 H         1 UNK         0.0847 
     89 H89       -69.1570   30.6164  -72.6719 H         1 UNK         0.0847 
     90 H90       -68.6579   31.7101  -73.9548 H         1 UNK         0.0847 
     91 H91       -70.3172   28.5633  -73.4378 H         1 UNK         0.3141 
     92 H92       -70.7011   26.4078  -74.1571 H         1 UNK         0.0743 
     93 H93       -72.9615   25.6251  -73.4284 H         1 UNK         0.0784 
     94 H94       -72.7158   27.2845  -72.9087 H         1 UNK         0.0784 
     95 H95       -73.7293   26.9463  -74.3093 H         1 UNK         0.0784 
     96 H96       -72.1635   26.4205  -76.6882 H         1 UNK         0.3213 
     97 H97       -71.3176   24.6357  -78.1443 H         1 UNK         0.0855 
     98 H98       -69.9761   22.6759  -77.3769 H         1 UNK         0.0814 
     99 H99       -71.2321   22.1820  -78.5007 H         1 UNK         0.0814 
    100 H100      -71.4310   21.8929  -76.7732 H         1 UNK         0.0814 
    101 H101      -73.5989   23.0195  -77.1136 H         1 UNK         0.3105 
    102 H102      -76.0072   25.2839  -78.4570 H         1 UNK         0.0547 
    103 H103      -75.4446   23.4907  -80.0717 H         1 UNK         0.0837 
    104 H104      -75.3294   22.3133  -78.7744 H         1 UNK         0.0837 
    105 H105      -76.8746   23.0767  -79.1397 H         1 UNK         0.0837 
    106 H106      -76.7161   24.8646  -76.4605 H         1 UNK         0.3020 
    107 H107      -76.4635   22.1488  -74.1568 H         1 UNK         0.1245 
    108 H108      -76.0528   25.1637  -73.8169 H         1 UNK         0.0781 
    109 H109      -74.8170   23.9637  -73.4891 H         1 UNK         0.0781 
    110 H110      -74.7103   25.2382  -71.2301 H         1 UNK         0.0836 
    111 H111      -75.7093   24.8301  -69.8615 H         1 UNK         0.0836 
    112 H112      -78.2540   24.4211  -74.6386 H         1 UNK         0.3022 
    113 H113      -80.8447   22.3442  -75.9424 H         1 UNK         0.0747 
    114 H114      -82.0962   23.4173  -74.0808 H         1 UNK         0.0793 
    115 H115      -81.0755   22.1221  -73.4832 H         1 UNK         0.0793 
    116 H116      -80.5857   23.7920  -73.2513 H         1 UNK         0.0793 
    117 H117      -80.4830   25.1766  -75.3396 H         1 UNK         0.3047 
    118 H118      -79.2880   26.0577  -78.5292 H         1 UNK         0.0822 
    119 H119      -81.3738   27.3528  -78.9129 H         1 UNK         0.0807 
    120 H120      -82.2400   26.3515  -77.7467 H         1 UNK         0.0807 
    121 H121      -81.6484   25.6515  -79.2468 H         1 UNK         0.0807 
    122 H122      -80.5258   27.6429  -76.5027 H         1 UNK         0.2946 
    123 H123      -77.7571   27.9041  -74.3244 H         1 UNK         0.1144 
    124 H124      -77.0694   29.4276  -76.1695 H         1 UNK         0.0793 
    125 H125      -77.9453   30.3469  -74.9555 H         1 UNK         0.0793 
    126 H126      -78.7401   29.8910  -76.4574 H         1 UNK         0.0793 
    127 H127      -80.1178   29.4056  -74.3350 H         1 UNK         0.2896 
@<TRIPOS>BOND
     1    1    2 1    
     2    1   67 1    
     3    1   68 1    
     4    1   69 1    
     5    2    3 2    
     6    2    4 am   BACKBONE|DICT|INTERRES
     7    4    5 1    
     8    4   70 1    
     9    5    6 1    
    10    5   65 1    
    11    5   71 1    
    12    6    7 1    
    13    6   72 1    
    14    6   73 1    
    15    7    8 1    
    16    8    9 1    
    17    8   74 1    
    18    8   75 1    
    19    9   10 ar   
    20    9   14 ar   
    21   10   11 ar   
    22   10   76 1    
    23   11   12 ar   
    24   11   48 1    
    25   12   13 ar   
    26   12   77 1    
    27   13   14 ar   
    28   13   15 1    
    29   14   78 1    
    30   15   16 1    
    31   15   79 1    
    32   15   80 1    
    33   16   17 1    
    34   17   18 1    
    35   17   81 1    
    36   17   82 1    
    37   18   19 1    
    38   18   22 1    
    39   18   83 1    
    40   19   20 am   BACKBONE|DICT|INTERRES
    41   19   21 2    
    42   20   84 1    
    43   20   85 1    
    44   22   23 am   BACKBONE|DICT|INTERRES
    45   22   86 1    
    46   23   24 2    
    47   23   25 1    
    48   25   26 1    
    49   25   27 1    
    50   25   87 1    
    51   26   88 1    
    52   26   89 1    
    53   26   90 1    
    54   27   28 am   BACKBONE|DICT|INTERRES
    55   27   91 1    
    56   28   29 2    
    57   28   30 1    
    58   30   31 1    
    59   30   32 1    
    60   30   92 1    
    61   31   93 1    
    62   31   94 1    
    63   31   95 1    
    64   32   33 am   BACKBONE|DICT|INTERRES
    65   32   96 1    
    66   33   34 2    
    67   33   35 1    
    68   35   36 1    
    69   35   37 1    
    70   35   97 1    
    71   36   98 1    
    72   36   99 1    
    73   36  100 1    
    74   37   38 am   BACKBONE|DICT|INTERRES
    75   37  101 1    
    76   38   39 2    
    77   38   40 1    
    78   40   41 1    
    79   40   42 1    
    80   40  102 1    
    81   41  103 1    
    82   41  104 1    
    83   41  105 1    
    84   42   43 am   BACKBONE|DICT|INTERRES
    85   42  106 1    
    86   43   44 2    
    87   43   45 1    
    88   45   46 1    
    89   45   49 1    
    90   45  107 1    
    91   46   47 1    
    92   46  108 1    
    93   46  109 1    
    94   47   48 1    
    95   48  110 1    
    96   48  111 1    
    97   49   50 am   BACKBONE|DICT|INTERRES
    98   49  112 1    
    99   50   51 2    
   100   50   52 1    
   101   52   53 1    
   102   52   54 1    
   103   52  113 1    
   104   53  114 1    
   105   53  115 1    
   106   53  116 1    
   107   54   55 am   BACKBONE|DICT|INTERRES
   108   54  117 1    
   109   55   56 2    
   110   55   57 1    
   111   57   58 1    
   112   57   59 1    
   113   57  118 1    
   114   58  119 1    
   115   58  120 1    
   116   58  121 1    
   117   59   60 am   BACKBONE|DICT|INTERRES
   118   59  122 1    
   119   60   61 2    
   120   60   62 1    
   121   62   63 1    
   122   62   64 1    
   123   62  123 1    
   124   63  124 1    
   125   63  125 1    
   126   63  126 1    
   127   64   65 am   BACKBONE|DICT|INTERRES
   128   64  127 1    
   129   65   66 2    
@<TRIPOS>SUBSTRUCTURE
     1 UNK         1 GROUP             0       ****    0 ROOT    
