@<TRIPOS>MOLECULE
3R135
127   129    1
SMALL
USER_CHARGES


@<TRIPOS>ATOM
      1 CA        -78.5922   25.3473  -70.9130 C.3       0 UNK        -0.1998 
      2 C         -80.0244   25.4192  -71.4171 C.2       0 UNK         0.4909 
      3 O         -80.6629   24.3823  -71.6082 O.2       0 UNK        -0.5240 
      4 N         -80.5436   26.6354  -71.6227 N.am      1 UNK        -0.4739 
      5 CA        -81.9193   26.8819  -72.0605 C.3       1 UNK         0.0864 
      6 C6        -82.4042   28.3251  -71.7653 C.3       11 UNK        -0.0881 
      7 S7        -82.0308   28.8579  -70.0560 S.3       11 UNK        -0.2682 
      8 C8        -81.0057   30.3443  -70.3143 C.3       11 UNK         0.0289 
      9 C9        -79.7600   30.0851  -71.1551 C.ar      11 UNK        -0.0687 
     10 C10       -79.7297   30.4851  -72.4949 C.ar      11 UNK        -0.0823 
     11 C11       -78.5884   30.2984  -73.2785 C.ar      11 UNK        -0.0830 
     12 C12       -77.4536   29.7312  -72.6878 C.ar      11 UNK        -0.1021 
     13 C13       -77.4698   29.3050  -71.3557 C.ar      11 UNK        -0.0753 
     14 C14       -78.6285   29.4854  -70.5923 C.ar      11 UNK        -0.0933 
     15 C15       -76.2175   28.6981  -70.7336 C.3       11 UNK         0.0166 
     16 S16       -75.4574   27.4247  -71.7976 S.3       11 UNK        -0.2615 
     17 C17       -73.7407   27.4404  -71.1835 C.3       11 UNK        -0.0865 
     18 CA        -72.8825   28.5767  -71.8054 C.3       10 UNK         0.0862 
     19 C         -71.4469   28.5845  -71.1998 C.2       10 UNK         0.5551 
     20 N         -70.3824   28.4288  -71.9790 N.am      10 UNK        -0.7319 
     21 O         -71.2972   28.7417  -69.9906 O.2       10 UNK        -0.5018 
     22 N         -72.9261   28.5606  -73.2760 N.am      10 UNK        -0.4509 
     23 C         -72.6459   29.6069  -74.0643 C.2       10 UNK         0.4899 
     24 O         -72.4149   30.7397  -73.6389 O.2       10 UNK        -0.4839 
     25 CA        -72.6051   29.3309  -75.5832 C.3       9 UNK         0.0222 
     26 CB        -71.7561   30.3646  -76.3525 C.3       9 UNK        -0.1966 
     27 N         -72.1818   27.9616  -75.9211 N.am      9 UNK        -0.4218 
     28 C         -71.0292   27.3686  -75.5673 C.2       9 UNK         0.5020 
     29 O         -70.1492   27.9224  -74.9068 O.2       9 UNK        -0.5274 
     30 CA        -70.8359   25.8960  -75.9563 C.3       8 UNK         0.0270 
     31 CB        -71.0306   25.0021  -74.7189 C.3       8 UNK        -0.1976 
     32 N         -71.7627   25.4529  -76.9986 N.am      8 UNK        -0.4313 
     33 C         -71.4792   25.3946  -78.3044 C.2       8 UNK         0.5041 
     34 O         -70.4199   25.7872  -78.7951 O.2       8 UNK        -0.5577 
     35 CA        -72.5448   24.7698  -79.2142 C.3       7 UNK         0.0284 
     36 CB        -72.7024   23.2673  -78.9186 C.3       7 UNK        -0.1958 
     37 N         -73.8468   25.4285  -79.0755 N.am      7 UNK        -0.4454 
     38 C         -74.5018   26.0273  -80.0807 C.2       7 UNK         0.5089 
     39 O         -74.0375   26.1622  -81.2139 O.2       7 UNK        -0.5125 
     40 CA        -75.9330   26.5357  -79.8125 C.3       6 UNK         0.0408 
     41 CB        -76.9598   25.6125  -80.4893 C.3       6 UNK        -0.1791 
     42 N         -76.2778   26.6602  -78.3948 N.am      6 UNK        -0.4762 
     43 C         -75.8169   27.6178  -77.5793 C.2       6 UNK         0.5007 
     44 O         -75.0267   28.4906  -77.9369 O.2       6 UNK        -0.5032 
     45 CA        -76.2800   27.5551  -76.1063 C.3       5 UNK         0.0783 
     46 C46       -77.5827   28.3659  -75.8870 C.3       11 UNK        -0.0857 
     47 S47       -77.2631   30.1619  -75.8054 S.3       11 UNK        -0.2512 
     48 C48       -78.6320   30.7436  -74.7428 C.3       11 UNK         0.0225 
     49 N         -76.4068   26.1856  -75.5919 N.am      5 UNK        -0.4615 
     50 C         -75.4511   25.2502  -75.5811 C.2       4 UNK         0.5053 
     51 O         -74.3460   25.4106  -76.0990 O.2       4 UNK        -0.5105 
     52 CA        -75.7509   23.9051  -74.8961 C.3       4 UNK         0.0263 
     53 CB        -75.3860   23.9764  -73.4020 C.3       4 UNK        -0.1981 
     54 N         -77.1036   23.3529  -75.0816 N.am      4 UNK        -0.4224 
     55 C         -78.2841   23.8517  -74.6874 C.2       3 UNK         0.4895 
     56 O         -78.4300   24.9710  -74.1934 O.2       3 UNK        -0.5091 
     57 CA        -79.4919   22.9173  -74.8516 C.3       3 UNK         0.0250 
     58 CB        -79.4284   21.7770  -73.8199 C.3       3 UNK        -0.1996 
     59 N         -80.7409   23.6494  -74.6466 N.am      3 UNK        -0.4254 
     60 C         -81.5534   24.0784  -75.6215 C.2       2 UNK         0.5004 
     61 O         -81.3525   23.8722  -76.8192 O.2       2 UNK        -0.5226 
     62 CA        -82.8191   24.8508  -75.2016 C.3       2 UNK         0.0269 
     63 CB        -84.0541   23.9374  -75.2757 C.3       2 UNK        -0.1926 
     64 N         -82.7245   25.4151  -73.8524 N.am      2 UNK        -0.4687 
     65 C         -82.0458   26.5303  -73.5546 C.2       1 UNK         0.5165 
     66 O         -81.5094   27.2504  -74.3994 O.2       1 UNK        -0.5079 
     67 H67       -78.0264   24.6181  -71.4910 H         1 UNK         0.0900 
     68 H68       -78.0904   26.3095  -70.9992 H         1 UNK         0.0900 
     69 H69       -78.5752   25.0423  -69.8674 H         1 UNK         0.0900 
     70 H70       -79.9776   27.4614  -71.4844 H         1 UNK         0.2959 
     71 H71       -82.5674   26.2111  -71.4913 H         1 UNK         0.1079 
     72 H72       -83.4848   28.3859  -71.9060 H         1 UNK         0.0837 
     73 H73       -81.9823   29.0342  -72.4759 H         1 UNK         0.0837 
     74 H74       -80.7071   30.7354  -69.3406 H         1 UNK         0.0685 
     75 H75       -81.6212   31.1201  -70.7727 H         1 UNK         0.0685 
     76 H76       -80.6026   30.9501  -72.9331 H         1 UNK         0.1434 
     77 H77       -76.5458   29.6073  -73.2600 H         1 UNK         0.1329 
     78 H78       -78.6465   29.1801  -69.5547 H         1 UNK         0.1335 
     79 H79       -76.4394   28.2542  -69.7620 H         1 UNK         0.0680 
     80 H80       -75.5059   29.5045  -70.5547 H         1 UNK         0.0680 
     81 H81       -73.2961   26.4682  -71.4037 H         1 UNK         0.1032 
     82 H82       -73.7614   27.5209  -70.0948 H         1 UNK         0.1032 
     83 H83       -73.3276   29.5214  -71.4889 H         1 UNK         0.0461 
     84 H84       -70.4725   28.3118  -72.9828 H         1 UNK         0.3453 
     85 H85       -69.4658   28.4418  -71.5616 H         1 UNK         0.3453 
     86 H86       -73.1083   27.6659  -73.7032 H         1 UNK         0.2984 
     87 H87       -73.6324   29.4367  -75.9286 H         1 UNK         0.0554 
     88 H88       -72.1450   31.3741  -76.2131 H         1 UNK         0.0847 
     89 H89       -71.7634   30.1632  -77.4237 H         1 UNK         0.0847 
     90 H90       -70.7184   30.3666  -76.0175 H         1 UNK         0.0847 
     91 H91       -72.8438   27.4133  -76.4531 H         1 UNK         0.3141 
     92 H92       -69.8061   25.7803  -76.3013 H         1 UNK         0.0743 
     93 H93       -70.3431   25.2827  -73.9193 H         1 UNK         0.0784 
     94 H94       -72.0431   25.0766  -74.3199 H         1 UNK         0.0784 
     95 H95       -70.8404   23.9548  -74.9542 H         1 UNK         0.0784 
     96 H96       -72.6900   25.1760  -76.6793 H         1 UNK         0.3213 
     97 H97       -72.1755   24.8629  -80.2379 H         1 UNK         0.0855 
     98 H98       -73.1040   23.0855  -77.9209 H         1 UNK         0.0814 
     99 H99       -71.7427   22.7526  -78.9842 H         1 UNK         0.0814 
    100 H100      -73.3717   22.7940  -79.6372 H         1 UNK         0.0814 
    101 H101      -74.2800   25.4079  -78.1597 H         1 UNK         0.3105 
    102 H102      -76.0154   27.5241  -80.2698 H         1 UNK         0.0547 
    103 H103      -77.9739   25.9975  -80.3809 H         1 UNK         0.0837 
    104 H104      -76.7628   25.5258  -81.5588 H         1 UNK         0.0837 
    105 H105      -76.9347   24.6051  -80.0720 H         1 UNK         0.0837 
    106 H106      -76.9087   25.9697  -78.0129 H         1 UNK         0.3020 
    107 H107      -75.4920   28.0120  -75.5053 H         1 UNK         0.1245 
    108 H108      -78.0521   28.0629  -74.9492 H         1 UNK         0.0781 
    109 H109      -78.3223   28.1614  -76.6637 H         1 UNK         0.0781 
    110 H110      -79.5722   30.4181  -75.1914 H         1 UNK         0.0836 
    111 H111      -78.6401   31.8340  -74.7681 H         1 UNK         0.0836 
    112 H112      -77.2727   25.9524  -75.1068 H         1 UNK         0.3022 
    113 H113      -75.0784   23.1795  -75.3566 H         1 UNK         0.0747 
    114 H114      -75.4728   23.0005  -72.9247 H         1 UNK         0.0793 
    115 H115      -74.3582   24.3151  -73.2636 H         1 UNK         0.0793 
    116 H116      -76.0292   24.6709  -72.8623 H         1 UNK         0.0793 
    117 H117      -77.1186   22.4393  -75.5142 H         1 UNK         0.3047 
    118 H118      -79.4635   22.4870  -75.8550 H         1 UNK         0.0822 
    119 H119      -78.5365   21.1643  -73.9562 H         1 UNK         0.0807 
    120 H120      -80.2893   21.1143  -73.9102 H         1 UNK         0.0807 
    121 H121      -79.4081   22.1590  -72.7981 H         1 UNK         0.0807 
    122 H122      -80.9289   23.9354  -73.6918 H         1 UNK         0.2946 
    123 H123      -82.9530   25.6657  -75.9173 H         1 UNK         0.1144 
    124 H124      -84.9678   24.4854  -75.0448 H         1 UNK         0.0793 
    125 H125      -83.9793   23.0989  -74.5821 H         1 UNK         0.0793 
    126 H126      -84.1723   23.5217  -76.2775 H         1 UNK         0.0793 
    127 H127      -83.1135   24.8625  -73.1009 H         1 UNK         0.2896 
@<TRIPOS>BOND
     1    1    2 1    
     2    1   67 1    
     3    1   68 1    
     4    1   69 1    
     5    2    3 2    
     6    2    4 am   BACKBONE|DICT|INTERRES
     7    4    5 1    
     8    4   70 1    
     9    5    6 1    
    10    5   65 1    
    11    5   71 1    
    12    6    7 1    
    13    6   72 1    
    14    6   73 1    
    15    7    8 1    
    16    8    9 1    
    17    8   74 1    
    18    8   75 1    
    19    9   10 ar   
    20    9   14 ar   
    21   10   11 ar   
    22   10   76 1    
    23   11   12 ar   
    24   11   48 1    
    25   12   13 ar   
    26   12   77 1    
    27   13   14 ar   
    28   13   15 1    
    29   14   78 1    
    30   15   16 1    
    31   15   79 1    
    32   15   80 1    
    33   16   17 1    
    34   17   18 1    
    35   17   81 1    
    36   17   82 1    
    37   18   19 1    
    38   18   22 1    
    39   18   83 1    
    40   19   20 am   BACKBONE|DICT|INTERRES
    41   19   21 2    
    42   20   84 1    
    43   20   85 1    
    44   22   23 am   BACKBONE|DICT|INTERRES
    45   22   86 1    
    46   23   24 2    
    47   23   25 1    
    48   25   26 1    
    49   25   27 1    
    50   25   87 1    
    51   26   88 1    
    52   26   89 1    
    53   26   90 1    
    54   27   28 am   BACKBONE|DICT|INTERRES
    55   27   91 1    
    56   28   29 2    
    57   28   30 1    
    58   30   31 1    
    59   30   32 1    
    60   30   92 1    
    61   31   93 1    
    62   31   94 1    
    63   31   95 1    
    64   32   33 am   BACKBONE|DICT|INTERRES
    65   32   96 1    
    66   33   34 2    
    67   33   35 1    
    68   35   36 1    
    69   35   37 1    
    70   35   97 1    
    71   36   98 1    
    72   36   99 1    
    73   36  100 1    
    74   37   38 am   BACKBONE|DICT|INTERRES
    75   37  101 1    
    76   38   39 2    
    77   38   40 1    
    78   40   41 1    
    79   40   42 1    
    80   40  102 1    
    81   41  103 1    
    82   41  104 1    
    83   41  105 1    
    84   42   43 am   BACKBONE|DICT|INTERRES
    85   42  106 1    
    86   43   44 2    
    87   43   45 1    
    88   45   46 1    
    89   45   49 1    
    90   45  107 1    
    91   46   47 1    
    92   46  108 1    
    93   46  109 1    
    94   47   48 1    
    95   48  110 1    
    96   48  111 1    
    97   49   50 am   BACKBONE|DICT|INTERRES
    98   49  112 1    
    99   50   51 2    
   100   50   52 1    
   101   52   53 1    
   102   52   54 1    
   103   52  113 1    
   104   53  114 1    
   105   53  115 1    
   106   53  116 1    
   107   54   55 am   BACKBONE|DICT|INTERRES
   108   54  117 1    
   109   55   56 2    
   110   55   57 1    
   111   57   58 1    
   112   57   59 1    
   113   57  118 1    
   114   58  119 1    
   115   58  120 1    
   116   58  121 1    
   117   59   60 am   BACKBONE|DICT|INTERRES
   118   59  122 1    
   119   60   61 2    
   120   60   62 1    
   121   62   63 1    
   122   62   64 1    
   123   62  123 1    
   124   63  124 1    
   125   63  125 1    
   126   63  126 1    
   127   64   65 am   BACKBONE|DICT|INTERRES
   128   64  127 1    
   129   65   66 2    
@<TRIPOS>SUBSTRUCTURE
     1 UNK         1 GROUP             0       ****    0 ROOT    
