@<TRIPOS>MOLECULE
3R135
127   129    1
SMALL
USER_CHARGES


@<TRIPOS>ATOM
      1 CA        -85.9336   28.8074  -75.7993 C.3       0 UNK        -0.1998 
      2 C         -84.6587   28.0429  -75.4770 C.2       0 UNK         0.4909 
      3 O         -84.7005   26.8195  -75.3391 O.2       0 UNK        -0.5240 
      4 N         -83.5280   28.7552  -75.3618 N.am      1 UNK        -0.4739 
      5 CA        -82.1753   28.2541  -75.0770 C.3       1 UNK         0.0864 
      6 C6        -82.0828   27.4608  -73.7426 C.3       11 UNK        -0.0881 
      7 S7        -80.3690   27.2331  -73.1650 S.3       11 UNK        -0.2682 
      8 C8        -80.2412   28.5403  -71.9085 C.3       11 UNK         0.0289 
      9 C9        -78.8140   28.6906  -71.4013 C.ar      11 UNK        -0.0687 
     10 C10       -78.2546   27.7099  -70.5761 C.ar      11 UNK        -0.0823 
     11 C11       -76.9524   27.8525  -70.0863 C.ar      11 UNK        -0.0830 
     12 C12       -76.2192   28.9972  -70.4072 C.ar      11 UNK        -0.1021 
     13 C13       -76.7605   29.9790  -71.2413 C.ar      11 UNK        -0.0753 
     14 C14       -78.0576   29.8180  -71.7392 C.ar      11 UNK        -0.0933 
     15 C15       -75.9521   31.2214  -71.5880 C.3       11 UNK         0.0166 
     16 S16       -74.8251   30.9301  -72.9876 S.3       11 UNK        -0.2615 
     17 C17       -73.4985   29.9533  -72.1964 C.3       11 UNK        -0.0865 
     18 CA        -72.1265   30.1335  -72.8932 C.3       10 UNK         0.0862 
     19 C         -71.0057   29.3912  -72.1152 C.2       10 UNK         0.5551 
     20 N         -70.4361   30.0280  -71.1009 N.am      10 UNK        -0.7319 
     21 O         -70.6756   28.2397  -72.3914 O.2       10 UNK        -0.5018 
     22 N         -72.1851   29.7397  -74.3066 N.am      10 UNK        -0.4509 
     23 C         -71.2899   30.0947  -75.2351 C.2       10 UNK         0.4899 
     24 O         -70.3118   30.8109  -75.0119 O.2       10 UNK        -0.4839 
     25 CA        -71.5649   29.5748  -76.6556 C.3       9 UNK         0.0222 
     26 CB        -70.5005   30.0022  -77.6902 C.3       9 UNK        -0.1966 
     27 N         -71.7932   28.1265  -76.6725 N.am      9 UNK        -0.4218 
     28 C         -70.9058   27.1480  -76.4283 C.2       9 UNK         0.5020 
     29 O         -69.7171   27.3521  -76.1770 O.2       9 UNK        -0.5274 
     30 CA        -71.4040   25.6854  -76.4707 C.3       8 UNK         0.0270 
     31 CB        -71.1549   24.9870  -75.1224 C.3       8 UNK        -0.1976 
     32 N         -72.8186   25.5352  -76.8238 N.am      8 UNK        -0.4313 
     33 C         -73.3499   25.7404  -78.0370 C.2       8 UNK         0.5041 
     34 O         -72.6828   25.9854  -79.0424 O.2       8 UNK        -0.5577 
     35 CA        -74.8878   25.7275  -78.1365 C.3       7 UNK         0.0284 
     36 CB        -75.3869   24.3361  -78.5514 C.3       7 UNK        -0.1958 
     37 N         -75.5633   26.1568  -76.9031 N.am      7 UNK        -0.4454 
     38 C         -75.4275   27.3717  -76.3477 C.2       7 UNK         0.5089 
     39 O         -74.7130   28.2591  -76.8139 O.2       7 UNK        -0.5125 
     40 CA        -76.1743   27.6331  -75.0330 C.3       6 UNK         0.0408 
     41 CB        -77.6202   28.0603  -75.3059 C.3       6 UNK        -0.1791 
     42 N         -76.1498   26.4732  -74.1416 N.am      6 UNK        -0.4762 
     43 C         -75.0668   26.0938  -73.4475 C.2       6 UNK         0.5007 
     44 O         -73.9971   26.7022  -73.4727 O.2       6 UNK        -0.5032 
     45 CA        -75.1745   24.7747  -72.6505 C.3       5 UNK         0.0783 
     46 C46       -75.9423   24.9448  -71.3166 C.3       11 UNK        -0.0857 
     47 S47       -75.0035   25.8716  -70.0578 S.3       11 UNK        -0.2512 
     48 C48       -76.3339   26.7785  -69.2028 C.3       11 UNK         0.0225 
     49 N         -75.7676   23.6998  -73.4496 N.am      5 UNK        -0.4615 
     50 C         -75.2733   23.2153  -74.5965 C.2       4 UNK         0.5053 
     51 O         -74.2177   23.5906  -75.1031 O.2       4 UNK        -0.5105 
     52 CA        -76.1216   22.1538  -75.3196 C.3       4 UNK         0.0263 
     53 CB        -75.7048   20.7443  -74.8710 C.3       4 UNK        -0.1981 
     54 N         -77.5695   22.3139  -75.1415 N.am      4 UNK        -0.4224 
     55 C         -78.2813   23.4099  -75.4429 C.2       3 UNK         0.4895 
     56 O         -77.7911   24.4543  -75.8825 O.2       3 UNK        -0.5091 
     57 CA        -79.7822   23.3258  -75.1196 C.3       3 UNK         0.0250 
     58 CB        -80.0087   23.4893  -73.6067 C.3       3 UNK        -0.1996 
     59 N         -80.5766   24.3303  -75.8278 N.am      3 UNK        -0.4254 
     60 C         -80.8280   24.3327  -77.1451 C.2       2 UNK         0.5004 
     61 O         -80.4052   23.4716  -77.9185 O.2       2 UNK        -0.5226 
     62 CA        -81.7379   25.4502  -77.6955 C.3       2 UNK         0.0269 
     63 CB        -82.9717   24.8555  -78.3971 C.3       2 UNK        -0.1926 
     64 N         -82.2003   26.3722  -76.6541 N.am      2 UNK        -0.4687 
     65 C         -81.5709   27.4896  -76.2748 C.2       1 UNK         0.5165 
     66 O         -80.5633   27.9244  -76.8317 O.2       1 UNK        -0.5079 
     67 H67       -86.3556   28.4523  -76.7390 H         1 UNK         0.0900 
     68 H68       -85.7561   29.8788  -75.8902 H         1 UNK         0.0900 
     69 H69       -86.6722   28.6515  -75.0135 H         1 UNK         0.0900 
     70 H70       -83.5768   29.7533  -75.5168 H         1 UNK         0.2959 
     71 H71       -81.5664   29.1522  -74.9567 H         1 UNK         0.1079 
     72 H72       -82.6477   27.9774  -72.9650 H         1 UNK         0.0837 
     73 H73       -82.5458   26.4770  -73.8320 H         1 UNK         0.0837 
     74 H74       -80.9025   28.3054  -71.0732 H         1 UNK         0.0685 
     75 H75       -80.5967   29.4811  -72.3320 H         1 UNK         0.0685 
     76 H76       -78.8358   26.8337  -70.3227 H         1 UNK         0.1434 
     77 H77       -75.2188   29.1135  -70.0148 H         1 UNK         0.1329 
     78 H78       -78.4817   30.5773  -72.3820 H         1 UNK         0.1335 
     79 H79       -76.6239   32.0401  -71.8499 H         1 UNK         0.0680 
     80 H80       -75.3884   31.5626  -70.7184 H         1 UNK         0.0680 
     81 H81       -73.7944   28.9039  -72.1841 H         1 UNK         0.1032 
     82 H82       -73.4200   30.2578  -71.1514 H         1 UNK         0.1032 
     83 H83       -71.8865   31.1989  -72.8695 H         1 UNK         0.0461 
     84 H84       -69.7160   29.5605  -70.5726 H         1 UNK         0.3453 
     85 H85       -70.6995   30.9712  -70.8611 H         1 UNK         0.3453 
     86 H86       -72.9387   29.1174  -74.5603 H         1 UNK         0.2984 
     87 H87       -72.5083   30.0273  -76.9645 H         1 UNK         0.0554 
     88 H88       -70.4469   31.0890  -77.7633 H         1 UNK         0.0847 
     89 H89       -70.7378   29.6221  -78.6838 H         1 UNK         0.0847 
     90 H90       -69.5039   29.6494  -77.4244 H         1 UNK         0.0847 
     91 H91       -72.7586   27.8602  -76.8414 H         1 UNK         0.3141 
     92 H92       -70.8132   25.1720  -77.2319 H         1 UNK         0.0743 
     93 H93       -70.0998   25.0228  -74.8482 H         1 UNK         0.0784 
     94 H94       -71.7164   25.4602  -74.3159 H         1 UNK         0.0784 
     95 H95       -71.4419   23.9359  -75.1597 H         1 UNK         0.0784 
     96 H96       -73.4402   25.2453  -76.0749 H         1 UNK         0.3213 
     97 H97       -75.1720   26.4361  -78.9174 H         1 UNK         0.0855 
     98 H98       -74.9890   23.5614  -77.8983 H         1 UNK         0.0814 
     99 H99       -75.0602   24.0972  -79.5643 H         1 UNK         0.0814 
    100 H100      -76.4754   24.2731  -78.5361 H         1 UNK         0.0814 
    101 H101      -76.2089   25.4998  -76.4726 H         1 UNK         0.3105 
    102 H102      -75.6750   28.4643  -74.5311 H         1 UNK         0.0547 
    103 H103      -77.6662   28.8491  -76.0579 H         1 UNK         0.0837 
    104 H104      -78.2278   27.2291  -75.6651 H         1 UNK         0.0837 
    105 H105      -78.0823   28.4563  -74.4035 H         1 UNK         0.0837 
    106 H106      -76.9712   25.8842  -74.1374 H         1 UNK         0.3020 
    107 H107      -74.1535   24.4613  -72.4195 H         1 UNK         0.1245 
    108 H108      -76.1554   23.9664  -70.8829 H         1 UNK         0.0781 
    109 H109      -76.9142   25.4083  -71.4907 H         1 UNK         0.0781 
    110 H110      -77.0895   26.0709  -68.8576 H         1 UNK         0.0836 
    111 H111      -75.9226   27.2456  -68.3068 H         1 UNK         0.0836 
    112 H112      -76.6411   23.3214  -73.1163 H         1 UNK         0.3022 
    113 H113      -75.9206   22.2370  -76.3869 H         1 UNK         0.0747 
    114 H114      -74.6345   20.5895  -75.0166 H         1 UNK         0.0793 
    115 H115      -76.2208   19.9747  -75.4455 H         1 UNK         0.0793 
    116 H116      -75.9173   20.5757  -73.8145 H         1 UNK         0.0793 
    117 H117      -78.0608   21.5122  -74.7720 H         1 UNK         0.3047 
    118 H118      -80.1450   22.3417  -75.4245 H         1 UNK         0.0822 
    119 H119      -81.0703   23.4861  -73.3581 H         1 UNK         0.0807 
    120 H120      -79.5795   24.4187  -73.2321 H         1 UNK         0.0807 
    121 H121      -79.5480   22.6739  -73.0479 H         1 UNK         0.0807 
    122 H122      -80.9308   25.0984  -75.2782 H         1 UNK         0.2946 
    123 H123      -81.1539   25.9995  -78.4375 H         1 UNK         0.1144 
    124 H124      -82.6801   24.1963  -79.2160 H         1 UNK         0.0793 
    125 H125      -83.6003   25.6379  -78.8230 H         1 UNK         0.0793 
    126 H126      -83.5838   24.2713  -77.7089 H         1 UNK         0.0793 
    127 H127      -83.0686   26.1423  -76.1778 H         1 UNK         0.2896 
@<TRIPOS>BOND
     1    1    2 1    
     2    1   67 1    
     3    1   68 1    
     4    1   69 1    
     5    2    3 2    
     6    2    4 am   BACKBONE|DICT|INTERRES
     7    4    5 1    
     8    4   70 1    
     9    5    6 1    
    10    5   65 1    
    11    5   71 1    
    12    6    7 1    
    13    6   72 1    
    14    6   73 1    
    15    7    8 1    
    16    8    9 1    
    17    8   74 1    
    18    8   75 1    
    19    9   10 ar   
    20    9   14 ar   
    21   10   11 ar   
    22   10   76 1    
    23   11   12 ar   
    24   11   48 1    
    25   12   13 ar   
    26   12   77 1    
    27   13   14 ar   
    28   13   15 1    
    29   14   78 1    
    30   15   16 1    
    31   15   79 1    
    32   15   80 1    
    33   16   17 1    
    34   17   18 1    
    35   17   81 1    
    36   17   82 1    
    37   18   19 1    
    38   18   22 1    
    39   18   83 1    
    40   19   20 am   BACKBONE|DICT|INTERRES
    41   19   21 2    
    42   20   84 1    
    43   20   85 1    
    44   22   23 am   BACKBONE|DICT|INTERRES
    45   22   86 1    
    46   23   24 2    
    47   23   25 1    
    48   25   26 1    
    49   25   27 1    
    50   25   87 1    
    51   26   88 1    
    52   26   89 1    
    53   26   90 1    
    54   27   28 am   BACKBONE|DICT|INTERRES
    55   27   91 1    
    56   28   29 2    
    57   28   30 1    
    58   30   31 1    
    59   30   32 1    
    60   30   92 1    
    61   31   93 1    
    62   31   94 1    
    63   31   95 1    
    64   32   33 am   BACKBONE|DICT|INTERRES
    65   32   96 1    
    66   33   34 2    
    67   33   35 1    
    68   35   36 1    
    69   35   37 1    
    70   35   97 1    
    71   36   98 1    
    72   36   99 1    
    73   36  100 1    
    74   37   38 am   BACKBONE|DICT|INTERRES
    75   37  101 1    
    76   38   39 2    
    77   38   40 1    
    78   40   41 1    
    79   40   42 1    
    80   40  102 1    
    81   41  103 1    
    82   41  104 1    
    83   41  105 1    
    84   42   43 am   BACKBONE|DICT|INTERRES
    85   42  106 1    
    86   43   44 2    
    87   43   45 1    
    88   45   46 1    
    89   45   49 1    
    90   45  107 1    
    91   46   47 1    
    92   46  108 1    
    93   46  109 1    
    94   47   48 1    
    95   48  110 1    
    96   48  111 1    
    97   49   50 am   BACKBONE|DICT|INTERRES
    98   49  112 1    
    99   50   51 2    
   100   50   52 1    
   101   52   53 1    
   102   52   54 1    
   103   52  113 1    
   104   53  114 1    
   105   53  115 1    
   106   53  116 1    
   107   54   55 am   BACKBONE|DICT|INTERRES
   108   54  117 1    
   109   55   56 2    
   110   55   57 1    
   111   57   58 1    
   112   57   59 1    
   113   57  118 1    
   114   58  119 1    
   115   58  120 1    
   116   58  121 1    
   117   59   60 am   BACKBONE|DICT|INTERRES
   118   59  122 1    
   119   60   61 2    
   120   60   62 1    
   121   62   63 1    
   122   62   64 1    
   123   62  123 1    
   124   63  124 1    
   125   63  125 1    
   126   63  126 1    
   127   64   65 am   BACKBONE|DICT|INTERRES
   128   64  127 1    
   129   65   66 2    
@<TRIPOS>SUBSTRUCTURE
     1 UNK         1 GROUP             0       ****    0 ROOT    
