@<TRIPOS>MOLECULE
3R135
127   129    1
SMALL
USER_CHARGES


@<TRIPOS>ATOM
      1 CA        -81.0153   24.8541  -71.3548 C.3       0 UNK        -0.1998 
      2 C         -81.7819   25.6040  -72.4325 C.2       0 UNK         0.4909 
      3 O         -82.7705   25.0844  -72.9506 O.2       0 UNK        -0.5240 
      4 N         -81.3444   26.8246  -72.7664 N.am      1 UNK        -0.4739 
      5 CA        -81.9570   27.6690  -73.7965 C.3       1 UNK         0.0864 
      6 C6        -81.5425   29.1555  -73.6687 C.3       11 UNK        -0.0881 
      7 S7        -81.9241   29.8263  -72.0125 S.3       11 UNK        -0.2682 
      8 C8        -80.4303   30.7953  -71.6183 C.3       11 UNK         0.0289 
      9 C9        -79.1434   29.9769  -71.6469 C.ar      11 UNK        -0.0687 
     10 C10       -78.9817   28.8634  -70.8147 C.ar      11 UNK        -0.0823 
     11 C11       -77.7898   28.1297  -70.8259 C.ar      11 UNK        -0.0830 
     12 C12       -76.7497   28.5393  -71.6677 C.ar      11 UNK        -0.1021 
     13 C13       -76.8962   29.6462  -72.5062 C.ar      11 UNK        -0.0753 
     14 C14       -78.0974   30.3592  -72.4926 C.ar      11 UNK        -0.0933 
     15 C15       -75.7605   30.0738  -73.4257 C.3       11 UNK         0.0166 
     16 S16       -74.4373   30.9242  -72.5110 S.3       11 UNK        -0.2615 
     17 C17       -73.2744   29.5531  -72.1752 C.3       11 UNK        -0.0865 
     18 CA        -71.9469   29.6641  -72.9745 C.3       10 UNK         0.0862 
     19 C         -70.9030   28.6354  -72.4574 C.2       10 UNK         0.5551 
     20 N         -70.4976   27.6264  -73.2179 N.am      10 UNK        -0.7319 
     21 O         -70.4288   28.7698  -71.3319 O.2       10 UNK        -0.5018 
     22 N         -72.1599   29.6140  -74.4327 N.am      10 UNK        -0.4509 
     23 C         -72.1260   30.6817  -75.2440 C.2       10 UNK         0.4899 
     24 O         -71.9101   31.8327  -74.8588 O.2       10 UNK        -0.4839 
     25 CA        -72.3764   30.4192  -76.7432 C.3       9 UNK         0.0222 
     26 CB        -72.0940   31.6481  -77.6342 C.3       9 UNK        -0.1966 
     27 N         -71.6597   29.2402  -77.2370 N.am      9 UNK        -0.4218 
     28 C         -70.3337   29.0206  -77.2108 C.2       9 UNK         0.5020 
     29 O         -69.5087   29.8649  -76.8572 O.2       9 UNK        -0.5274 
     30 CA        -69.8329   27.6257  -77.6522 C.3       8 UNK         0.0270 
     31 CB        -68.6502   27.1372  -76.7882 C.3       8 UNK        -0.1976 
     32 N         -70.8760   26.5907  -77.7223 N.am      8 UNK        -0.4313 
     33 C         -71.6718   26.1750  -76.7271 C.2       8 UNK         0.5041 
     34 O         -71.6230   26.6090  -75.5731 O.2       8 UNK        -0.5577 
     35 CA        -72.7452   25.1425  -77.1091 C.3       7 UNK         0.0284 
     36 CB        -72.3534   23.7493  -76.5950 C.3       7 UNK        -0.1958 
     37 N         -74.0707   25.5049  -76.5963 N.am      7 UNK        -0.4454 
     38 C         -74.6990   26.6699  -76.8270 C.2       7 UNK         0.5089 
     39 O         -74.2358   27.5580  -77.5465 O.2       7 UNK        -0.5125 
     40 CA        -76.0777   26.8979  -76.1746 C.3       6 UNK         0.0408 
     41 CB        -77.1681   26.9845  -77.2541 C.3       6 UNK        -0.1791 
     42 N         -76.4596   25.8866  -75.1836 N.am      6 UNK        -0.4762 
     43 C         -75.8972   25.7434  -73.9716 C.2       6 UNK         0.5007 
     44 O         -74.9933   26.4695  -73.5606 O.2       6 UNK        -0.5032 
     45 CA        -76.3795   24.5630  -73.0925 C.3       5 UNK         0.0783 
     46 C46       -77.3819   25.0180  -71.9970 C.3       11 UNK        -0.0857 
     47 S47       -76.5331   25.6032  -70.4910 S.3       11 UNK        -0.2512 
     48 C48       -77.6346   26.9333  -69.8866 C.3       11 UNK         0.0225 
     49 N         -76.9170   23.4459  -73.8796 N.am      5 UNK        -0.4615 
     50 C         -76.2174   22.7266  -74.7687 C.2       4 UNK         0.5053 
     51 O         -75.0132   22.8835  -74.9645 O.2       4 UNK        -0.5105 
     52 CA        -76.9805   21.6863  -75.6131 C.3       4 UNK         0.0263 
     53 CB        -76.7223   20.2711  -75.0713 C.3       4 UNK        -0.1981 
     54 N         -78.4309   21.8985  -75.7293 N.am      4 UNK        -0.4224 
     55 C         -79.0319   23.0076  -76.1839 C.2       3 UNK         0.4895 
     56 O         -78.4209   24.0295  -76.5067 O.2       3 UNK        -0.5091 
     57 CA        -80.5659   22.9772  -76.2625 C.3       3 UNK         0.0250 
     58 CB        -81.2095   22.4925  -74.9465 C.3       3 UNK        -0.1996 
     59 N         -81.0426   24.3203  -76.5759 N.am      3 UNK        -0.4254 
     60 C         -82.2025   24.6465  -77.1513 C.2       2 UNK         0.5004 
     61 O         -83.0434   23.8208  -77.5131 O.2       2 UNK        -0.5226 
     62 CA        -82.4734   26.1572  -77.3118 C.3       2 UNK         0.0269 
     63 CB        -83.7293   26.4489  -78.1548 C.3       2 UNK        -0.1926 
     64 N         -82.6166   26.8100  -76.0059 N.am      2 UNK        -0.4687 
     65 C         -81.6008   27.1142  -75.1871 C.2       1 UNK         0.5165 
     66 O         -80.4155   26.9528  -75.4864 O.2       1 UNK        -0.5079 
     67 H67       -81.6857   24.5814  -70.5402 H         1 UNK         0.0900 
     68 H68       -80.2101   25.4559  -70.9397 H         1 UNK         0.0900 
     69 H69       -80.5859   23.9398  -71.7620 H         1 UNK         0.0900 
     70 H70       -80.5213   27.2102  -72.3274 H         1 UNK         0.2959 
     71 H71       -83.0409   27.6169  -73.6692 H         1 UNK         0.1079 
     72 H72       -82.0701   29.7621  -74.4071 H         1 UNK         0.0837 
     73 H73       -80.4797   29.2747  -73.8856 H         1 UNK         0.0837 
     74 H74       -80.5476   31.2293  -70.6245 H         1 UNK         0.0685 
     75 H75       -80.3715   31.6353  -72.3123 H         1 UNK         0.0685 
     76 H76       -79.7867   28.5765  -70.1514 H         1 UNK         0.1434 
     77 H77       -75.8155   27.9991  -71.6678 H         1 UNK         0.1329 
     78 H78       -78.2128   31.2219  -73.1344 H         1 UNK         0.1335 
     79 H79       -76.1333   30.7468  -74.1992 H         1 UNK         0.0680 
     80 H80       -75.3545   29.2095  -73.9505 H         1 UNK         0.0680 
     81 H81       -73.7471   28.5920  -72.3790 H         1 UNK         0.1032 
     82 H82       -73.0749   29.5627  -71.1018 H         1 UNK         0.1032 
     83 H83       -71.5055   30.6300  -72.7220 H         1 UNK         0.0461 
     84 H84       -69.8111   26.9929  -72.8426 H         1 UNK         0.3453 
     85 H85       -70.9165   27.4165  -74.1219 H         1 UNK         0.3453 
     86 H86       -72.2893   28.6926  -74.8318 H         1 UNK         0.2984 
     87 H87       -73.4386   30.1875  -76.8337 H         1 UNK         0.0554 
     88 H88       -72.3057   31.4357  -78.6820 H         1 UNK         0.0847 
     89 H89       -71.0559   31.9734  -77.5605 H         1 UNK         0.0847 
     90 H90       -72.7197   32.4929  -77.3436 H         1 UNK         0.0847 
     91 H91       -72.2594   28.4749  -77.5259 H         1 UNK         0.3141 
     92 H92       -69.4653   27.7529  -78.6715 H         1 UNK         0.0743 
     93 H93       -68.9262   27.0511  -75.7368 H         1 UNK         0.0784 
     94 H94       -68.2906   26.1636  -77.1210 H         1 UNK         0.0784 
     95 H95       -67.8079   27.8276  -76.8462 H         1 UNK         0.0784 
     96 H96       -71.0181   26.1892  -78.6398 H         1 UNK         0.3213 
     97 H97       -72.8236   25.0980  -78.1972 H         1 UNK         0.0855 
     98 H98       -72.3155   23.7210  -75.5049 H         1 UNK         0.0814 
     99 H99       -71.3695   23.4563  -76.9638 H         1 UNK         0.0814 
    100 H100      -73.0618   22.9896  -76.9256 H         1 UNK         0.0814 
    101 H101      -74.5091   24.8392  -75.9723 H         1 UNK         0.3105 
    102 H102      -76.0371   27.8630  -75.6692 H         1 UNK         0.0547 
    103 H103      -76.9537   27.7833  -77.9651 H         1 UNK         0.0837 
    104 H104      -77.2480   26.0570  -77.8219 H         1 UNK         0.0837 
    105 H105      -78.1434   27.1967  -76.8178 H         1 UNK         0.0837 
    106 H106      -77.1750   25.2264  -75.4760 H         1 UNK         0.3020 
    107 H107      -75.4862   24.1708  -72.6000 H         1 UNK         0.1245 
    108 H108      -78.0066   24.1803  -71.6837 H         1 UNK         0.0781 
    109 H109      -78.0685   25.7776  -72.3759 H         1 UNK         0.0781 
    110 H110      -77.2348   27.2990  -68.9401 H         1 UNK         0.0836 
    111 H111      -78.6075   26.5006  -69.6541 H         1 UNK         0.0836 
    112 H112      -77.9030   23.2562  -73.7859 H         1 UNK         0.3022 
    113 H113      -76.5694   21.7435  -76.6230 H         1 UNK         0.0747 
    114 H114      -77.1496   19.5101  -75.7246 H         1 UNK         0.0793 
    115 H115      -75.6525   20.0680  -75.0005 H         1 UNK         0.0793 
    116 H116      -77.1456   20.1372  -74.0749 H         1 UNK         0.0793 
    117 H117      -79.0127   21.1117  -75.4793 H         1 UNK         0.3047 
    118 H118      -80.8425   22.3034  -77.0760 H         1 UNK         0.0822 
    119 H119      -80.9612   21.4526  -74.7336 H         1 UNK         0.0807 
    120 H120      -82.2973   22.5528  -74.9896 H         1 UNK         0.0807 
    121 H121      -80.8822   23.0920  -74.0972 H         1 UNK         0.0807 
    122 H122      -80.3996   25.0674  -76.3257 H         1 UNK         0.2946 
    123 H123      -81.6150   26.5876  -77.8336 H         1 UNK         0.1144 
    124 H124      -83.6511   25.9914  -79.1420 H         1 UNK         0.0793 
    125 H125      -83.8653   27.5199  -78.3061 H         1 UNK         0.0793 
    126 H126      -84.6331   26.0587  -77.6850 H         1 UNK         0.0793 
    127 H127      -83.5623   26.9327  -75.6725 H         1 UNK         0.2896 
@<TRIPOS>BOND
     1    1    2 1    
     2    1   67 1    
     3    1   68 1    
     4    1   69 1    
     5    2    3 2    
     6    2    4 am   BACKBONE|DICT|INTERRES
     7    4    5 1    
     8    4   70 1    
     9    5    6 1    
    10    5   65 1    
    11    5   71 1    
    12    6    7 1    
    13    6   72 1    
    14    6   73 1    
    15    7    8 1    
    16    8    9 1    
    17    8   74 1    
    18    8   75 1    
    19    9   10 ar   
    20    9   14 ar   
    21   10   11 ar   
    22   10   76 1    
    23   11   12 ar   
    24   11   48 1    
    25   12   13 ar   
    26   12   77 1    
    27   13   14 ar   
    28   13   15 1    
    29   14   78 1    
    30   15   16 1    
    31   15   79 1    
    32   15   80 1    
    33   16   17 1    
    34   17   18 1    
    35   17   81 1    
    36   17   82 1    
    37   18   19 1    
    38   18   22 1    
    39   18   83 1    
    40   19   20 am   BACKBONE|DICT|INTERRES
    41   19   21 2    
    42   20   84 1    
    43   20   85 1    
    44   22   23 am   BACKBONE|DICT|INTERRES
    45   22   86 1    
    46   23   24 2    
    47   23   25 1    
    48   25   26 1    
    49   25   27 1    
    50   25   87 1    
    51   26   88 1    
    52   26   89 1    
    53   26   90 1    
    54   27   28 am   BACKBONE|DICT|INTERRES
    55   27   91 1    
    56   28   29 2    
    57   28   30 1    
    58   30   31 1    
    59   30   32 1    
    60   30   92 1    
    61   31   93 1    
    62   31   94 1    
    63   31   95 1    
    64   32   33 am   BACKBONE|DICT|INTERRES
    65   32   96 1    
    66   33   34 2    
    67   33   35 1    
    68   35   36 1    
    69   35   37 1    
    70   35   97 1    
    71   36   98 1    
    72   36   99 1    
    73   36  100 1    
    74   37   38 am   BACKBONE|DICT|INTERRES
    75   37  101 1    
    76   38   39 2    
    77   38   40 1    
    78   40   41 1    
    79   40   42 1    
    80   40  102 1    
    81   41  103 1    
    82   41  104 1    
    83   41  105 1    
    84   42   43 am   BACKBONE|DICT|INTERRES
    85   42  106 1    
    86   43   44 2    
    87   43   45 1    
    88   45   46 1    
    89   45   49 1    
    90   45  107 1    
    91   46   47 1    
    92   46  108 1    
    93   46  109 1    
    94   47   48 1    
    95   48  110 1    
    96   48  111 1    
    97   49   50 am   BACKBONE|DICT|INTERRES
    98   49  112 1    
    99   50   51 2    
   100   50   52 1    
   101   52   53 1    
   102   52   54 1    
   103   52  113 1    
   104   53  114 1    
   105   53  115 1    
   106   53  116 1    
   107   54   55 am   BACKBONE|DICT|INTERRES
   108   54  117 1    
   109   55   56 2    
   110   55   57 1    
   111   57   58 1    
   112   57   59 1    
   113   57  118 1    
   114   58  119 1    
   115   58  120 1    
   116   58  121 1    
   117   59   60 am   BACKBONE|DICT|INTERRES
   118   59  122 1    
   119   60   61 2    
   120   60   62 1    
   121   62   63 1    
   122   62   64 1    
   123   62  123 1    
   124   63  124 1    
   125   63  125 1    
   126   63  126 1    
   127   64   65 am   BACKBONE|DICT|INTERRES
   128   64  127 1    
   129   65   66 2    
@<TRIPOS>SUBSTRUCTURE
     1 UNK         1 GROUP             0       ****    0 ROOT    
