@<TRIPOS>MOLECULE
3R135
127   129    1
SMALL
USER_CHARGES


@<TRIPOS>ATOM
      1 CA        -83.7758   24.2032  -73.7636 C.3       0 UNK        -0.1998 
      2 C         -82.6769   25.2470  -73.6397 C.2       0 UNK         0.4909 
      3 O         -81.5002   24.8981  -73.7353 O.2       0 UNK        -0.5240 
      4 N         -83.0551   26.5195  -73.4417 N.am      1 UNK        -0.4739 
      5 CA        -82.1730   27.6884  -73.3114 C.3       1 UNK         0.0864 
      6 C6        -81.4655   27.7365  -71.9273 C.3       11 UNK        -0.0881 
      7 S7        -80.9068   29.4251  -71.5220 S.3       11 UNK        -0.2682 
      8 C8        -79.5013   29.1070  -70.4100 C.3       11 UNK         0.0289 
      9 C9        -78.2588   28.5998  -71.1333 C.ar      11 UNK        -0.0687 
     10 C10       -77.6760   27.3856  -70.7565 C.ar      11 UNK        -0.0823 
     11 C11       -76.4854   26.9535  -71.3489 C.ar      11 UNK        -0.0830 
     12 C12       -75.8839   27.7370  -72.3376 C.ar      11 UNK        -0.1021 
     13 C13       -76.4648   28.9434  -72.7366 C.ar      11 UNK        -0.0753 
     14 C14       -77.6500   29.3717  -72.1295 C.ar      11 UNK        -0.0933 
     15 C15       -75.8056   29.7828  -73.8190 C.3       11 UNK         0.0166 
     16 S16       -74.9016   31.1817  -73.0951 S.3       11 UNK        -0.2615 
     17 C17       -74.0565   31.8637  -74.5664 C.3       11 UNK        -0.0865 
     18 CA        -72.5498   32.1491  -74.3307 C.3       10 UNK         0.0862 
     19 C         -72.3324   33.3710  -73.3867 C.2       10 UNK         0.5551 
     20 N         -71.7663   33.2029  -72.1976 N.am      10 UNK        -0.7319 
     21 O         -72.6755   34.4936  -73.7499 O.2       10 UNK        -0.5018 
     22 N         -71.8183   30.9223  -73.9740 N.am      10 UNK        -0.4509 
     23 C         -70.4886   30.7788  -73.9810 C.2       10 UNK         0.4899 
     24 O         -69.7037   31.6626  -74.3254 O.2       10 UNK        -0.4839 
     25 CA        -69.9319   29.4144  -73.5409 C.3       9 UNK         0.0222 
     26 CB        -70.1993   29.1406  -72.0462 C.3       9 UNK        -0.1966 
     27 N         -70.3688   28.3030  -74.3962 N.am      9 UNK        -0.4218 
     28 C         -71.5973   27.7849  -74.5338 C.2       9 UNK         0.5020 
     29 O         -72.5842   28.1463  -73.8876 O.2       9 UNK        -0.5274 
     30 CA        -71.7233   26.6386  -75.5522 C.3       8 UNK         0.0270 
     31 CB        -71.4158   25.2932  -74.8760 C.3       8 UNK        -0.1976 
     32 N         -73.0500   26.5793  -76.1712 N.am      8 UNK        -0.4313 
     33 C         -73.5626   27.5298  -76.9681 C.2       8 UNK         0.5041 
     34 O         -72.9370   28.5356  -77.3108 O.2       8 UNK        -0.5577 
     35 CA        -75.0136   27.3365  -77.4588 C.3       7 UNK         0.0284 
     36 CB        -75.3197   28.1122  -78.7569 C.3       7 UNK        -0.1958 
     37 N         -75.4238   25.9340  -77.5853 N.am      7 UNK        -0.4454 
     38 C         -74.8775   24.9754  -78.3493 C.2       7 UNK         0.5089 
     39 O         -73.9490   25.1680  -79.1359 O.2       7 UNK        -0.5125 
     40 CA        -75.4628   23.5547  -78.1785 C.3       6 UNK         0.0408 
     41 CB        -74.4849   22.4506  -78.6313 C.3       6 UNK        -0.1791 
     42 N         -75.9496   23.2866  -76.8168 N.am      6 UNK        -0.4762 
     43 C         -75.2462   23.3681  -75.6734 C.2       6 UNK         0.5007 
     44 O         -74.0423   23.6205  -75.6424 O.2       6 UNK        -0.5032 
     45 CA        -76.0045   23.2059  -74.3393 C.3       5 UNK         0.0783 
     46 C46       -75.7301   24.4146  -73.4098 C.3       11 UNK        -0.0857 
     47 S47       -76.5026   24.2145  -71.7704 S.3       11 UNK        -0.2512 
     48 C48       -75.8309   25.6580  -70.8927 C.3       11 UNK         0.0225 
     49 N         -77.4409   23.0407  -74.5666 N.am      5 UNK        -0.4615 
     50 C         -78.1151   21.8885  -74.4973 C.2       4 UNK         0.5053 
     51 O         -77.5957   20.8041  -74.2327 O.2       4 UNK        -0.5105 
     52 CA        -79.6284   21.9520  -74.7750 C.3       4 UNK         0.0263 
     53 CB        -80.4160   21.8722  -73.4577 C.3       4 UNK        -0.1981 
     54 N         -80.0358   23.1519  -75.5175 N.am      4 UNK        -0.4224 
     55 C         -79.7428   23.3640  -76.8095 C.2       3 UNK         0.4895 
     56 O         -79.1025   22.5715  -77.5013 O.2       3 UNK        -0.5091 
     57 CA        -80.1966   24.6939  -77.4320 C.3       3 UNK         0.0250 
     58 CB        -81.6803   24.6241  -77.8272 C.3       3 UNK        -0.1996 
     59 N         -79.9772   25.8720  -76.5904 N.am      3 UNK        -0.4254 
     60 C         -78.8208   26.2676  -76.0444 C.2       2 UNK         0.5004 
     61 O         -77.7753   25.6238  -76.1150 O.2       2 UNK        -0.5226 
     62 CA        -78.8178   27.6002  -75.2769 C.3       2 UNK         0.0269 
     63 CB        -78.7500   28.8038  -76.2365 C.3       2 UNK        -0.1926 
     64 N         -79.9143   27.7306  -74.3099 N.am      2 UNK        -0.4687 
     65 C         -81.2345   27.8040  -74.5348 C.2       1 UNK         0.5165 
     66 O         -81.7344   27.8921  -75.6591 O.2       1 UNK        -0.5079 
     67 H67       -83.6979   23.6897  -74.7214 H         1 UNK         0.0900 
     68 H68       -83.6770   23.4620  -72.9710 H         1 UNK         0.0900 
     69 H69       -84.7695   24.6452  -73.6943 H         1 UNK         0.0900 
     70 H70       -84.0431   26.7305  -73.4108 H         1 UNK         0.2959 
     71 H71       -82.8366   28.5528  -73.3744 H         1 UNK         0.1079 
     72 H72       -80.6464   27.0180  -71.8601 H         1 UNK         0.0837 
     73 H73       -82.1696   27.4441  -71.1466 H         1 UNK         0.0837 
     74 H74       -79.8162   28.4106  -69.6311 H         1 UNK         0.0685 
     75 H75       -79.2469   30.0373  -69.9005 H         1 UNK         0.0685 
     76 H76       -78.1329   26.7856  -69.9811 H         1 UNK         0.1434 
     77 H77       -74.9576   27.4120  -72.7926 H         1 UNK         0.1329 
     78 H78       -78.0900   30.3158  -72.4211 H         1 UNK         0.1335 
     79 H79       -75.1198   29.1708  -74.4073 H         1 UNK         0.0680 
     80 H80       -76.5604   30.1594  -74.5100 H         1 UNK         0.0680 
     81 H81       -74.5777   32.7703  -74.8801 H         1 UNK         0.1032 
     82 H82       -74.1592   31.1682  -75.4010 H         1 UNK         0.1032 
     83 H83       -72.1437   32.4650  -75.2935 H         1 UNK         0.0461 
     84 H84       -71.6260   33.9997  -71.5969 H         1 UNK         0.3453 
     85 H85       -71.4931   32.2828  -71.8934 H         1 UNK         0.3453 
     86 H86       -72.3807   30.1169  -73.7148 H         1 UNK         0.2984 
     87 H87       -68.8488   29.4651  -73.6646 H         1 UNK         0.0554 
     88 H88       -69.7416   28.2038  -71.7286 H         1 UNK         0.0847 
     89 H89       -71.2637   29.0850  -71.8165 H         1 UNK         0.0847 
     90 H90       -69.7774   29.9324  -71.4260 H         1 UNK         0.0847 
     91 H91       -69.6435   27.9270  -74.9918 H         1 UNK         0.3141 
     92 H92       -70.9962   26.8007  -76.3508 H         1 UNK         0.0743 
     93 H93       -70.4258   25.2978  -74.4182 H         1 UNK         0.0784 
     94 H94       -71.4332   24.4747  -75.5959 H         1 UNK         0.0784 
     95 H95       -72.1372   25.0645  -74.0902 H         1 UNK         0.0784 
     96 H96       -73.6083   25.7609  -75.9613 H         1 UNK         0.3213 
     97 H97       -75.6406   27.7561  -76.6714 H         1 UNK         0.0855 
     98 H98       -74.6839   27.7857  -79.5804 H         1 UNK         0.0814 
     99 H99       -75.1551   29.1820  -78.6231 H         1 UNK         0.0814 
    100 H100      -76.3581   27.9819  -79.0615 H         1 UNK         0.0814 
    101 H101      -76.2148   25.6647  -76.9993 H         1 UNK         0.3105 
    102 H102      -76.3391   23.5086  -78.8265 H         1 UNK         0.0547 
    103 H103      -74.9229   21.4597  -78.5131 H         1 UNK         0.0837 
    104 H104      -73.5543   22.4767  -78.0635 H         1 UNK         0.0837 
    105 H105      -74.2256   22.5647  -79.6845 H         1 UNK         0.0837 
    106 H106      -76.9421   23.0998  -76.7422 H         1 UNK         0.3020 
    107 H107      -75.5966   22.3115  -73.8630 H         1 UNK         0.1245 
    108 H108      -76.1024   25.3352  -73.8628 H         1 UNK         0.0781 
    109 H109      -74.6576   24.5532  -73.2592 H         1 UNK         0.0781 
    110 H110      -74.7493   25.7038  -71.0300 H         1 UNK         0.0836 
    111 H111      -75.9922   25.5232  -69.8221 H         1 UNK         0.0836 
    112 H112      -77.9387   23.8837  -74.8245 H         1 UNK         0.3022 
    113 H113      -79.8861   21.0782  -75.3774 H         1 UNK         0.0747 
    114 H114      -81.4913   21.8766  -73.6361 H         1 UNK         0.0793 
    115 H115      -80.1804   20.9550  -72.9163 H         1 UNK         0.0793 
    116 H116      -80.1809   22.7087  -72.7982 H         1 UNK         0.0793 
    117 H117      -80.5433   23.8627  -74.9925 H         1 UNK         0.3047 
    118 H118      -79.6091   24.8410  -78.3406 H         1 UNK         0.0822 
    119 H119      -81.9857   25.5134  -78.3788 H         1 UNK         0.0807 
    120 H120      -82.3263   24.5349  -76.9528 H         1 UNK         0.0807 
    121 H121      -81.8756   23.7633  -78.4684 H         1 UNK         0.0807 
    122 H122      -80.7765   26.4819  -76.4393 H         1 UNK         0.2946 
    123 H123      -77.9027   27.6011  -74.6844 H         1 UNK         0.1144 
    124 H124      -78.7074   29.7445  -75.6880 H         1 UNK         0.0793 
    125 H125      -79.6107   28.8469  -76.9042 H         1 UNK         0.0793 
    126 H126      -77.8608   28.7528  -76.8649 H         1 UNK         0.0793 
    127 H127      -79.6262   27.6632  -73.3430 H         1 UNK         0.2896 
@<TRIPOS>BOND
     1    1    2 1    
     2    1   67 1    
     3    1   68 1    
     4    1   69 1    
     5    2    3 2    
     6    2    4 am   BACKBONE|DICT|INTERRES
     7    4    5 1    
     8    4   70 1    
     9    5    6 1    
    10    5   65 1    
    11    5   71 1    
    12    6    7 1    
    13    6   72 1    
    14    6   73 1    
    15    7    8 1    
    16    8    9 1    
    17    8   74 1    
    18    8   75 1    
    19    9   10 ar   
    20    9   14 ar   
    21   10   11 ar   
    22   10   76 1    
    23   11   12 ar   
    24   11   48 1    
    25   12   13 ar   
    26   12   77 1    
    27   13   14 ar   
    28   13   15 1    
    29   14   78 1    
    30   15   16 1    
    31   15   79 1    
    32   15   80 1    
    33   16   17 1    
    34   17   18 1    
    35   17   81 1    
    36   17   82 1    
    37   18   19 1    
    38   18   22 1    
    39   18   83 1    
    40   19   20 am   BACKBONE|DICT|INTERRES
    41   19   21 2    
    42   20   84 1    
    43   20   85 1    
    44   22   23 am   BACKBONE|DICT|INTERRES
    45   22   86 1    
    46   23   24 2    
    47   23   25 1    
    48   25   26 1    
    49   25   27 1    
    50   25   87 1    
    51   26   88 1    
    52   26   89 1    
    53   26   90 1    
    54   27   28 am   BACKBONE|DICT|INTERRES
    55   27   91 1    
    56   28   29 2    
    57   28   30 1    
    58   30   31 1    
    59   30   32 1    
    60   30   92 1    
    61   31   93 1    
    62   31   94 1    
    63   31   95 1    
    64   32   33 am   BACKBONE|DICT|INTERRES
    65   32   96 1    
    66   33   34 2    
    67   33   35 1    
    68   35   36 1    
    69   35   37 1    
    70   35   97 1    
    71   36   98 1    
    72   36   99 1    
    73   36  100 1    
    74   37   38 am   BACKBONE|DICT|INTERRES
    75   37  101 1    
    76   38   39 2    
    77   38   40 1    
    78   40   41 1    
    79   40   42 1    
    80   40  102 1    
    81   41  103 1    
    82   41  104 1    
    83   41  105 1    
    84   42   43 am   BACKBONE|DICT|INTERRES
    85   42  106 1    
    86   43   44 2    
    87   43   45 1    
    88   45   46 1    
    89   45   49 1    
    90   45  107 1    
    91   46   47 1    
    92   46  108 1    
    93   46  109 1    
    94   47   48 1    
    95   48  110 1    
    96   48  111 1    
    97   49   50 am   BACKBONE|DICT|INTERRES
    98   49  112 1    
    99   50   51 2    
   100   50   52 1    
   101   52   53 1    
   102   52   54 1    
   103   52  113 1    
   104   53  114 1    
   105   53  115 1    
   106   53  116 1    
   107   54   55 am   BACKBONE|DICT|INTERRES
   108   54  117 1    
   109   55   56 2    
   110   55   57 1    
   111   57   58 1    
   112   57   59 1    
   113   57  118 1    
   114   58  119 1    
   115   58  120 1    
   116   58  121 1    
   117   59   60 am   BACKBONE|DICT|INTERRES
   118   59  122 1    
   119   60   61 2    
   120   60   62 1    
   121   62   63 1    
   122   62   64 1    
   123   62  123 1    
   124   63  124 1    
   125   63  125 1    
   126   63  126 1    
   127   64   65 am   BACKBONE|DICT|INTERRES
   128   64  127 1    
   129   65   66 2    
@<TRIPOS>SUBSTRUCTURE
     1 UNK         1 GROUP             0       ****    0 ROOT    
