@<TRIPOS>MOLECULE
3R135
127   129    1
SMALL
USER_CHARGES


@<TRIPOS>ATOM
      1 CA        -82.2037   28.5173  -74.4608 C.3       0 UNK        -0.1998 
      2 C         -81.2910   29.6594  -74.0185 C.2       0 UNK         0.4909 
      3 O         -81.6303   30.8150  -74.2642 O.2       0 UNK        -0.5240 
      4 N         -80.1380   29.4211  -73.3742 N.am      1 UNK        -0.4739 
      5 CA        -79.5201   28.1392  -72.9919 C.3       1 UNK         0.0864 
      6 C6        -80.3606   27.2724  -72.0075 C.3       11 UNK        -0.0881 
      7 S7        -80.8244   28.2049  -70.5018 S.3       11 UNK        -0.2682 
      8 C8        -79.7159   27.5215  -69.2199 C.3       11 UNK         0.0289 
      9 C9        -78.2640   27.4521  -69.6741 C.ar      11 UNK        -0.0687 
     10 C10       -77.6305   26.2128  -69.7974 C.ar      11 UNK        -0.0823 
     11 C11       -76.3278   26.1270  -70.2945 C.ar      11 UNK        -0.0830 
     12 C12       -75.6604   27.2933  -70.6805 C.ar      11 UNK        -0.1021 
     13 C13       -76.2768   28.5417  -70.5455 C.ar      11 UNK        -0.0753 
     14 C14       -77.5672   28.6164  -70.0105 C.ar      11 UNK        -0.0933 
     15 C15       -75.5553   29.8058  -70.9917 C.3       11 UNK         0.0166 
     16 S16       -76.4679   30.6685  -72.3111 S.3       11 UNK        -0.2615 
     17 C17       -75.2829   31.9898  -72.7471 C.3       11 UNK        -0.0865 
     18 CA        -75.2494   32.2715  -74.2769 C.3       10 UNK         0.0862 
     19 C         -74.3813   33.5135  -74.6476 C.2       10 UNK         0.5551 
     20 N         -73.7634   33.5570  -75.8216 N.am      10 UNK        -0.7319 
     21 O         -74.2921   34.4673  -73.8780 O.2       10 UNK        -0.5018 
     22 N         -74.9887   31.0569  -75.0720 N.am      10 UNK        -0.4509 
     23 C         -73.8544   30.3456  -75.0953 C.2       10 UNK         0.4899 
     24 O         -72.8107   30.6785  -74.5290 O.2       10 UNK        -0.4839 
     25 CA        -73.9097   29.0565  -75.9354 C.3       9 UNK         0.0222 
     26 CB        -73.7960   29.3760  -77.4360 C.3       9 UNK        -0.1966 
     27 N         -72.8764   28.0816  -75.5844 N.am      9 UNK        -0.4218 
     28 C         -72.7591   27.4584  -74.4041 C.2       9 UNK         0.5020 
     29 O         -73.5031   27.6448  -73.4400 O.2       9 UNK        -0.5274 
     30 CA        -71.6479   26.4041  -74.3288 C.3       8 UNK         0.0270 
     31 CB        -71.5351   25.7301  -72.9461 C.3       8 UNK        -0.1976 
     32 N         -71.8844   25.3911  -75.3588 N.am      8 UNK        -0.4313 
     33 C         -70.9240   24.7453  -76.0342 C.2       8 UNK         0.5041 
     34 O         -69.7231   24.9747  -75.8811 O.2       8 UNK        -0.5577 
     35 CA        -71.3392   23.6435  -77.0308 C.3       7 UNK         0.0284 
     36 CB        -70.8497   22.2686  -76.5433 C.3       7 UNK        -0.1958 
     37 N         -72.7832   23.5676  -77.2612 N.am      7 UNK        -0.4454 
     38 C         -73.4660   24.3176  -78.1361 C.2       7 UNK         0.5089 
     39 O         -72.9441   25.1438  -78.8848 O.2       7 UNK        -0.5125 
     40 CA        -74.9969   24.1309  -78.1583 C.3       6 UNK         0.0408 
     41 CB        -75.4056   23.1346  -79.2538 C.3       6 UNK        -0.1791 
     42 N         -75.5706   23.7029  -76.8741 N.am      6 UNK        -0.4762 
     43 C         -75.4874   24.4055  -75.7363 C.2       6 UNK         0.5007 
     44 O         -74.8911   25.4782  -75.6577 O.2       6 UNK        -0.5032 
     45 CA        -76.1634   23.8079  -74.4905 C.3       5 UNK         0.0783 
     46 C46       -75.8289   24.6059  -73.2056 C.3       11 UNK        -0.0857 
     47 S47       -76.4094   23.7450  -71.7102 S.3       11 UNK        -0.2512 
     48 C48       -75.6499   24.7700  -70.4129 C.3       11 UNK         0.0225 
     49 N         -77.6072   23.7255  -74.7035 N.am      5 UNK        -0.4615 
     50 C         -78.2546   22.6894  -75.2467 C.2       4 UNK         0.5053 
     51 O         -77.6889   21.6951  -75.7021 O.2       4 UNK        -0.5105 
     52 CA        -79.7837   22.7936  -75.3063 C.3       4 UNK         0.0263 
     53 CB        -80.3922   22.7274  -73.8944 C.3       4 UNK        -0.1981 
     54 N         -80.1727   24.0495  -75.9444 N.am      4 UNK        -0.4224 
     55 C         -80.6722   24.1602  -77.1832 C.2       3 UNK         0.4895 
     56 O         -80.9532   23.2001  -77.9015 O.2       3 UNK        -0.5091 
     57 CA        -80.8956   25.5862  -77.7245 C.3       3 UNK         0.0250 
     58 CB        -82.3533   26.0222  -77.5035 C.3       3 UNK        -0.1996 
     59 N         -79.9975   26.5816  -77.1318 N.am      3 UNK        -0.4254 
     60 C         -78.6657   26.5957  -77.2844 C.2       2 UNK         0.5004 
     61 O         -78.0581   25.8301  -78.0307 O.2       2 UNK        -0.5226 
     62 CA        -77.8726   27.6239  -76.4581 C.3       2 UNK         0.0269 
     63 CB        -77.5126   28.8311  -77.3388 C.3       2 UNK        -0.1926 
     64 N         -78.5376   28.1074  -75.2391 N.am      2 UNK        -0.4687 
     65 C         -78.9692   27.3636  -74.2074 C.2       1 UNK         0.5165 
     66 O         -78.9699   26.1315  -74.2102 O.2       1 UNK        -0.5079 
     67 H67       -82.9364   28.3078  -73.6819 H         1 UNK         0.0900 
     68 H68       -82.7490   28.8019  -75.3605 H         1 UNK         0.0900 
     69 H69       -81.6702   27.5983  -74.6854 H         1 UNK         0.0900 
     70 H70       -79.5984   30.2280  -73.0921 H         1 UNK         0.2959 
     71 H71       -78.6155   28.4216  -72.4560 H         1 UNK         0.1079 
     72 H72       -79.8074   26.3781  -71.7158 H         1 UNK         0.0837 
     73 H73       -81.2712   26.9023  -72.4766 H         1 UNK         0.0837 
     74 H74       -79.7831   28.1417  -68.3252 H         1 UNK         0.0685 
     75 H75       -80.0808   26.5330  -68.9367 H         1 UNK         0.0685 
     76 H76       -78.1571   25.3069  -69.5291 H         1 UNK         0.1434 
     77 H77       -74.6615   27.2288  -71.0907 H         1 UNK         0.1329 
     78 H78       -78.0538   29.5777  -69.9155 H         1 UNK         0.1335 
     79 H79       -74.5540   29.5646  -71.3535 H         1 UNK         0.0680 
     80 H80       -75.4315   30.4737  -70.1383 H         1 UNK         0.0680 
     81 H81       -74.2840   31.7281  -72.3941 H         1 UNK         0.1032 
     82 H82       -75.5732   32.8860  -72.1960 H         1 UNK         0.1032 
     83 H83       -76.2599   32.5711  -74.5573 H         1 UNK         0.0461 
     84 H84       -73.8310   32.7820  -76.4610 H         1 UNK         0.3453 
     85 H85       -73.2125   34.3660  -76.0615 H         1 UNK         0.3453 
     86 H86       -75.7790   30.7182  -75.5980 H         1 UNK         0.2984 
     87 H87       -74.8731   28.5769  -75.7512 H         1 UNK         0.0554 
     88 H88       -74.5679   30.0770  -77.7554 H         1 UNK         0.0847 
     89 H89       -73.9121   28.4764  -78.0416 H         1 UNK         0.0847 
     90 H90       -72.8316   29.8235  -77.6801 H         1 UNK         0.0847 
     91 H91       -72.2088   27.8555  -76.3067 H         1 UNK         0.3141 
     92 H92       -70.7110   26.9280  -74.5301 H         1 UNK         0.0743 
     93 H93       -72.4392   25.1776  -72.6908 H         1 UNK         0.0784 
     94 H94       -70.6969   25.0340  -72.9124 H         1 UNK         0.0784 
     95 H95       -71.3720   26.4713  -72.1627 H         1 UNK         0.0784 
     96 H96       -72.8612   25.2193  -75.5810 H         1 UNK         0.3213 
     97 H97       -70.8413   23.8633  -77.9779 H         1 UNK         0.0855 
     98 H98       -71.2998   21.9939  -75.5885 H         1 UNK         0.0814 
     99 H99       -69.7674   22.2645  -76.4051 H         1 UNK         0.0814 
    100 H100      -71.0831   21.4848  -77.2642 H         1 UNK         0.0814 
    101 H101      -73.3019   22.9111  -76.6961 H         1 UNK         0.3105 
    102 H102      -75.4334   25.1013  -78.4032 H         1 UNK         0.0547 
    103 H103      -75.0118   23.4387  -80.2247 H         1 UNK         0.0837 
    104 H104      -75.0311   22.1310  -79.0491 H         1 UNK         0.0837 
    105 H105      -76.4901   23.0777  -79.3505 H         1 UNK         0.0837 
    106 H106      -76.1068   22.8434  -76.8679 H         1 UNK         0.3020 
    107 H107      -75.7576   22.8008  -74.3675 H         1 UNK         0.1245 
    108 H108      -76.2703   25.6044  -73.2388 H         1 UNK         0.0781 
    109 H109      -74.7514   24.7496  -73.1109 H         1 UNK         0.0781 
    110 H110      -74.5823   24.8796  -70.6107 H         1 UNK         0.0836 
    111 H111      -75.7304   24.2469  -69.4590 H         1 UNK         0.0836 
    112 H112      -78.1383   24.5361  -74.3941 H         1 UNK         0.3022 
    113 H113      -80.1560   21.9392  -75.8756 H         1 UNK         0.0747 
    114 H114      -81.4814   22.7384  -73.9351 H         1 UNK         0.0793 
    115 H115      -80.0959   21.8096  -73.3847 H         1 UNK         0.0793 
    116 H116      -80.0744   23.5645  -73.2709 H         1 UNK         0.0793 
    117 H117      -79.9326   24.8976  -75.4420 H         1 UNK         0.3047 
    118 H118      -80.7028   25.5622  -78.7993 H         1 UNK         0.0822 
    119 H119      -82.5426   27.0105  -77.9228 H         1 UNK         0.0807 
    120 H120      -82.6134   26.0480  -76.4448 H         1 UNK         0.0807 
    121 H121      -83.0427   25.3297  -77.9887 H         1 UNK         0.0807 
    122 H122      -80.4118   27.2737  -76.5274 H         1 UNK         0.2946 
    123 H123      -76.9477   27.1339  -76.1474 H         1 UNK         0.1144 
    124 H124      -76.9341   28.5190  -78.2098 H         1 UNK         0.0793 
    125 H125      -76.9122   29.5593  -76.7973 H         1 UNK         0.0793 
    126 H126      -78.4041   29.3417  -77.7056 H         1 UNK         0.0793 
    127 H127      -78.6207   29.1100  -75.1469 H         1 UNK         0.2896 
@<TRIPOS>BOND
     1    1    2 1    
     2    1   67 1    
     3    1   68 1    
     4    1   69 1    
     5    2    3 2    
     6    2    4 am   BACKBONE|DICT|INTERRES
     7    4    5 1    
     8    4   70 1    
     9    5    6 1    
    10    5   65 1    
    11    5   71 1    
    12    6    7 1    
    13    6   72 1    
    14    6   73 1    
    15    7    8 1    
    16    8    9 1    
    17    8   74 1    
    18    8   75 1    
    19    9   10 ar   
    20    9   14 ar   
    21   10   11 ar   
    22   10   76 1    
    23   11   12 ar   
    24   11   48 1    
    25   12   13 ar   
    26   12   77 1    
    27   13   14 ar   
    28   13   15 1    
    29   14   78 1    
    30   15   16 1    
    31   15   79 1    
    32   15   80 1    
    33   16   17 1    
    34   17   18 1    
    35   17   81 1    
    36   17   82 1    
    37   18   19 1    
    38   18   22 1    
    39   18   83 1    
    40   19   20 am   BACKBONE|DICT|INTERRES
    41   19   21 2    
    42   20   84 1    
    43   20   85 1    
    44   22   23 am   BACKBONE|DICT|INTERRES
    45   22   86 1    
    46   23   24 2    
    47   23   25 1    
    48   25   26 1    
    49   25   27 1    
    50   25   87 1    
    51   26   88 1    
    52   26   89 1    
    53   26   90 1    
    54   27   28 am   BACKBONE|DICT|INTERRES
    55   27   91 1    
    56   28   29 2    
    57   28   30 1    
    58   30   31 1    
    59   30   32 1    
    60   30   92 1    
    61   31   93 1    
    62   31   94 1    
    63   31   95 1    
    64   32   33 am   BACKBONE|DICT|INTERRES
    65   32   96 1    
    66   33   34 2    
    67   33   35 1    
    68   35   36 1    
    69   35   37 1    
    70   35   97 1    
    71   36   98 1    
    72   36   99 1    
    73   36  100 1    
    74   37   38 am   BACKBONE|DICT|INTERRES
    75   37  101 1    
    76   38   39 2    
    77   38   40 1    
    78   40   41 1    
    79   40   42 1    
    80   40  102 1    
    81   41  103 1    
    82   41  104 1    
    83   41  105 1    
    84   42   43 am   BACKBONE|DICT|INTERRES
    85   42  106 1    
    86   43   44 2    
    87   43   45 1    
    88   45   46 1    
    89   45   49 1    
    90   45  107 1    
    91   46   47 1    
    92   46  108 1    
    93   46  109 1    
    94   47   48 1    
    95   48  110 1    
    96   48  111 1    
    97   49   50 am   BACKBONE|DICT|INTERRES
    98   49  112 1    
    99   50   51 2    
   100   50   52 1    
   101   52   53 1    
   102   52   54 1    
   103   52  113 1    
   104   53  114 1    
   105   53  115 1    
   106   53  116 1    
   107   54   55 am   BACKBONE|DICT|INTERRES
   108   54  117 1    
   109   55   56 2    
   110   55   57 1    
   111   57   58 1    
   112   57   59 1    
   113   57  118 1    
   114   58  119 1    
   115   58  120 1    
   116   58  121 1    
   117   59   60 am   BACKBONE|DICT|INTERRES
   118   59  122 1    
   119   60   61 2    
   120   60   62 1    
   121   62   63 1    
   122   62   64 1    
   123   62  123 1    
   124   63  124 1    
   125   63  125 1    
   126   63  126 1    
   127   64   65 am   BACKBONE|DICT|INTERRES
   128   64  127 1    
   129   65   66 2    
@<TRIPOS>SUBSTRUCTURE
     1 UNK         1 GROUP             0       ****    0 ROOT    
