@<TRIPOS>MOLECULE
3R135
127   129    1
SMALL
USER_CHARGES


@<TRIPOS>ATOM
      1 CA        -86.2626   27.0556  -72.0989 C.3       0 UNK        -0.1998 
      2 C         -85.3597   27.5253  -73.2296 C.2       0 UNK         0.4909 
      3 O         -85.7563   27.4649  -74.3937 O.2       0 UNK        -0.5240 
      4 N         -84.1512   27.9979  -72.8944 N.am      1 UNK        -0.4739 
      5 CA        -83.1335   28.4590  -73.8477 C.3       1 UNK         0.0864 
      6 C6        -82.0230   29.2558  -73.1180 C.3       11 UNK        -0.0881 
      7 S7        -81.0063   30.3068  -74.2128 S.3       11 UNK        -0.2682 
      8 C8        -79.5737   29.2434  -74.5898 C.3       11 UNK         0.0289 
      9 C9        -78.6588   29.0279  -73.3921 C.ar      11 UNK        -0.0687 
     10 C10       -78.8462   27.9278  -72.5530 C.ar      11 UNK        -0.0823 
     11 C11       -78.0197   27.7184  -71.4464 C.ar      11 UNK        -0.0830 
     12 C12       -76.9617   28.6027  -71.2065 C.ar      11 UNK        -0.1021 
     13 C13       -76.7529   29.7033  -72.0463 C.ar      11 UNK        -0.0753 
     14 C14       -77.6113   29.9143  -73.1312 C.ar      11 UNK        -0.0933 
     15 C15       -75.6423   30.7041  -71.7549 C.3       11 UNK         0.0166 
     16 S16       -74.4123   30.7881  -73.0961 S.3       11 UNK        -0.2615 
     17 C17       -73.2736   29.4260  -72.6680 C.3       11 UNK        -0.0865 
     18 CA        -71.8663   29.6352  -73.2950 C.3       10 UNK         0.0862 
     19 C         -70.8213   28.6085  -72.7663 C.2       10 UNK         0.5551 
     20 N         -69.9424   28.0592  -73.5979 N.am      10 UNK        -0.7319 
     21 O         -70.7872   28.3194  -71.5726 O.2       10 UNK        -0.5018 
     22 N         -71.9384   29.6690  -74.7637 N.am      10 UNK        -0.4509 
     23 C         -71.3181   30.5435  -75.5596 C.2       10 UNK         0.4899 
     24 O         -70.6227   31.4745  -75.1482 O.2       10 UNK        -0.4839 
     25 CA        -71.5022   30.3204  -77.0758 C.3       9 UNK         0.0222 
     26 CB        -70.7090   31.3355  -77.9259 C.3       9 UNK        -0.1966 
     27 N         -71.1955   28.9507  -77.5154 N.am      9 UNK        -0.4218 
     28 C         -70.0663   28.2579  -77.3071 C.2       9 UNK         0.5020 
     29 O         -69.1347   28.6509  -76.6023 O.2       9 UNK        -0.5274 
     30 CA        -69.9811   26.8778  -77.9866 C.3       8 UNK         0.0270 
     31 CB        -68.5760   26.2533  -77.8889 C.3       8 UNK        -0.1976 
     32 N         -70.9502   25.9518  -77.4040 N.am      8 UNK        -0.4313 
     33 C         -72.2514   25.8955  -77.7123 C.2       8 UNK         0.5041 
     34 O         -72.7666   26.5856  -78.5959 O.2       8 UNK        -0.5577 
     35 CA        -73.1325   24.9344  -76.8840 C.3       7 UNK         0.0284 
     36 CB        -72.3843   24.2331  -75.7272 C.3       7 UNK        -0.1958 
     37 N         -74.3408   25.5733  -76.3508 N.am      7 UNK        -0.4454 
     38 C         -74.4234   26.7416  -75.6925 C.2       7 UNK         0.5089 
     39 O         -73.4867   27.5215  -75.5302 O.2       7 UNK        -0.5125 
     40 CA        -75.7822   27.0613  -75.0507 C.3       6 UNK         0.0408 
     41 CB        -76.8065   27.4583  -76.1248 C.3       6 UNK        -0.1791 
     42 N         -76.2715   25.9241  -74.2653 N.am      6 UNK        -0.4762 
     43 C         -75.6605   25.4516  -73.1647 C.2       6 UNK         0.5007 
     44 O         -74.6979   26.0030  -72.6297 O.2       6 UNK        -0.5032 
     45 CA        -76.1532   24.1152  -72.5788 C.3       5 UNK         0.0783 
     46 C46       -76.8562   24.2794  -71.2101 C.3       11 UNK        -0.0857 
     47 S47       -78.5427   24.9682  -71.2818 S.3       11 UNK        -0.2512 
     48 C48       -78.3302   26.5891  -70.4705 C.3       11 UNK         0.0225 
     49 N         -76.9447   23.3449  -73.5446 N.am      5 UNK        -0.4615 
     50 C         -76.4278   22.4036  -74.3458 C.2       4 UNK         0.5053 
     51 O         -75.2506   22.0452  -74.3150 O.2       4 UNK        -0.5105 
     52 CA        -77.3759   21.7511  -75.3651 C.3       4 UNK         0.0263 
     53 CB        -78.1739   20.6138  -74.7069 C.3       4 UNK        -0.1981 
     54 N         -78.3016   22.6905  -76.0009 N.am      4 UNK        -0.4224 
     55 C         -77.9486   23.7479  -76.7466 C.2       3 UNK         0.4895 
     56 O         -76.7823   24.0778  -76.9667 O.2       3 UNK        -0.5091 
     57 CA        -79.0926   24.5907  -77.3401 C.3       3 UNK         0.0250 
     58 CB        -79.3865   24.1498  -78.7826 C.3       3 UNK        -0.1996 
     59 N         -80.3336   24.5540  -76.5578 N.am      3 UNK        -0.4254 
     60 C         -80.4616   25.0381  -75.3148 C.2       2 UNK         0.5004 
     61 O         -79.5286   25.5219  -74.6727 O.2       2 UNK        -0.5226 
     62 CA        -81.8491   24.9045  -74.6637 C.3       2 UNK         0.0269 
     63 CB        -81.8345   23.7860  -73.6090 C.3       2 UNK        -0.1926 
     64 N         -82.3102   26.1470  -74.0375 N.am      2 UNK        -0.4687 
     65 C         -82.5734   27.2898  -74.6908 C.2       1 UNK         0.5165 
     66 O         -82.4393   27.4262  -75.9080 O.2       1 UNK        -0.5079 
     67 H67       -86.5105   26.0026  -72.2300 H         1 UNK         0.0900 
     68 H68       -87.1907   27.6267  -72.0980 H         1 UNK         0.0900 
     69 H69       -85.7913   27.1739  -71.1234 H         1 UNK         0.0900 
     70 H70       -83.8905   28.0313  -71.9188 H         1 UNK         0.2959 
     71 H71       -83.6330   29.1397  -74.5415 H         1 UNK         0.1079 
     72 H72       -82.4880   29.9422  -72.4084 H         1 UNK         0.0837 
     73 H73       -81.4044   28.6033  -72.5063 H         1 UNK         0.0837 
     74 H74       -79.0075   29.7054  -75.3998 H         1 UNK         0.0685 
     75 H75       -79.9174   28.2850  -74.9779 H         1 UNK         0.0685 
     76 H76       -79.6499   27.2334  -72.7525 H         1 UNK         0.1434 
     77 H77       -76.3190   28.4520  -70.3501 H         1 UNK         0.1329 
     78 H78       -77.4603   30.7703  -73.7744 H         1 UNK         0.1335 
     79 H79       -76.0907   31.6917  -71.6379 H         1 UNK         0.0680 
     80 H80       -75.1474   30.4839  -70.8080 H         1 UNK         0.0680 
     81 H81       -73.2003   29.3674  -71.5808 H         1 UNK         0.1032 
     82 H82       -73.7075   28.4799  -72.9935 H         1 UNK         0.1032 
     83 H83       -71.5052   30.6017  -72.9394 H         1 UNK         0.0461 
     84 H84       -69.2656   27.4064  -73.2367 H         1 UNK         0.3453 
     85 H85       -69.9095   28.3361  -74.5702 H         1 UNK         0.3453 
     86 H86       -72.4759   28.9077  -75.1798 H         1 UNK         0.2984 
     87 H87       -72.5626   30.4764  -77.2793 H         1 UNK         0.0554 
     88 H88       -70.9005   31.1984  -78.9901 H         1 UNK         0.0847 
     89 H89       -69.6342   31.2441  -77.7641 H         1 UNK         0.0847 
     90 H90       -70.9901   32.3596  -77.6771 H         1 UNK         0.0847 
     91 H91       -71.9296   28.4729  -78.0293 H         1 UNK         0.3141 
     92 H92       -70.2076   27.0180  -79.0460 H         1 UNK         0.0743 
     93 H93       -67.8256   26.9127  -78.3273 H         1 UNK         0.0784 
     94 H94       -68.2836   26.0691  -76.8543 H         1 UNK         0.0784 
     95 H95       -68.5252   25.3058  -78.4256 H         1 UNK         0.0784 
     96 H96       -70.6216   25.3839  -76.6364 H         1 UNK         0.3213 
     97 H97       -73.4743   24.1641  -77.5769 H         1 UNK         0.0855 
     98 H98       -72.0092   24.9466  -74.9916 H         1 UNK         0.0814 
     99 H99       -71.5430   23.6414  -76.0904 H         1 UNK         0.0814 
    100 H100      -73.0450   23.5439  -75.2007 H         1 UNK         0.0814 
    101 H101      -75.2001   25.0412  -76.4714 H         1 UNK         0.3105 
    102 H102      -75.6615   27.9044  -74.3676 H         1 UNK         0.0547 
    103 H103      -77.8218   27.4378  -75.7357 H         1 UNK         0.0837 
    104 H104      -76.6105   28.4691  -76.4836 H         1 UNK         0.0837 
    105 H105      -76.7720   26.7995  -76.9920 H         1 UNK         0.0837 
    106 H106      -77.0874   25.4406  -74.6148 H         1 UNK         0.3020 
    107 H107      -75.2357   23.5608  -72.3664 H         1 UNK         0.1245 
    108 H108      -76.2353   24.8682  -70.5327 H         1 UNK         0.0781 
    109 H109      -76.9370   23.2988  -70.7387 H         1 UNK         0.0781 
    110 H110      -77.5742   26.5232  -69.6870 H         1 UNK         0.0836 
    111 H111      -79.2630   26.8354  -69.9618 H         1 UNK         0.0836 
    112 H112      -77.9207   23.5956  -73.6249 H         1 UNK         0.3022 
    113 H113      -76.7574   21.3202  -76.1554 H         1 UNK         0.0747 
    114 H114      -78.7736   20.0732  -75.4394 H         1 UNK         0.0793 
    115 H115      -77.5059   19.8883  -74.2401 H         1 UNK         0.0793 
    116 H116      -78.8444   20.9854  -73.9308 H         1 UNK         0.0793 
    117 H117      -79.2866   22.5061  -75.8827 H         1 UNK         0.3047 
    118 H118      -78.7568   25.6280  -77.3675 H         1 UNK         0.0822 
    119 H119      -78.4850   24.1957  -79.3957 H         1 UNK         0.0807 
    120 H120      -80.1274   24.7968  -79.2530 H         1 UNK         0.0807 
    121 H121      -79.7577   23.1251  -78.8257 H         1 UNK         0.0807 
    122 H122      -81.1442   24.1645  -77.0181 H         1 UNK         0.2946 
    123 H123      -82.5755   24.6404  -75.4356 H         1 UNK         0.1144 
    124 H124      -81.5203   22.8374  -74.0463 H         1 UNK         0.0793 
    125 H125      -82.8245   23.6305  -73.1798 H         1 UNK         0.0793 
    126 H126      -81.1462   24.0116  -72.7931 H         1 UNK         0.0793 
    127 H127      -82.4506   26.1233  -73.0385 H         1 UNK         0.2896 
@<TRIPOS>BOND
     1    1    2 1    
     2    1   67 1    
     3    1   68 1    
     4    1   69 1    
     5    2    3 2    
     6    2    4 am   BACKBONE|DICT|INTERRES
     7    4    5 1    
     8    4   70 1    
     9    5    6 1    
    10    5   65 1    
    11    5   71 1    
    12    6    7 1    
    13    6   72 1    
    14    6   73 1    
    15    7    8 1    
    16    8    9 1    
    17    8   74 1    
    18    8   75 1    
    19    9   10 ar   
    20    9   14 ar   
    21   10   11 ar   
    22   10   76 1    
    23   11   12 ar   
    24   11   48 1    
    25   12   13 ar   
    26   12   77 1    
    27   13   14 ar   
    28   13   15 1    
    29   14   78 1    
    30   15   16 1    
    31   15   79 1    
    32   15   80 1    
    33   16   17 1    
    34   17   18 1    
    35   17   81 1    
    36   17   82 1    
    37   18   19 1    
    38   18   22 1    
    39   18   83 1    
    40   19   20 am   BACKBONE|DICT|INTERRES
    41   19   21 2    
    42   20   84 1    
    43   20   85 1    
    44   22   23 am   BACKBONE|DICT|INTERRES
    45   22   86 1    
    46   23   24 2    
    47   23   25 1    
    48   25   26 1    
    49   25   27 1    
    50   25   87 1    
    51   26   88 1    
    52   26   89 1    
    53   26   90 1    
    54   27   28 am   BACKBONE|DICT|INTERRES
    55   27   91 1    
    56   28   29 2    
    57   28   30 1    
    58   30   31 1    
    59   30   32 1    
    60   30   92 1    
    61   31   93 1    
    62   31   94 1    
    63   31   95 1    
    64   32   33 am   BACKBONE|DICT|INTERRES
    65   32   96 1    
    66   33   34 2    
    67   33   35 1    
    68   35   36 1    
    69   35   37 1    
    70   35   97 1    
    71   36   98 1    
    72   36   99 1    
    73   36  100 1    
    74   37   38 am   BACKBONE|DICT|INTERRES
    75   37  101 1    
    76   38   39 2    
    77   38   40 1    
    78   40   41 1    
    79   40   42 1    
    80   40  102 1    
    81   41  103 1    
    82   41  104 1    
    83   41  105 1    
    84   42   43 am   BACKBONE|DICT|INTERRES
    85   42  106 1    
    86   43   44 2    
    87   43   45 1    
    88   45   46 1    
    89   45   49 1    
    90   45  107 1    
    91   46   47 1    
    92   46  108 1    
    93   46  109 1    
    94   47   48 1    
    95   48  110 1    
    96   48  111 1    
    97   49   50 am   BACKBONE|DICT|INTERRES
    98   49  112 1    
    99   50   51 2    
   100   50   52 1    
   101   52   53 1    
   102   52   54 1    
   103   52  113 1    
   104   53  114 1    
   105   53  115 1    
   106   53  116 1    
   107   54   55 am   BACKBONE|DICT|INTERRES
   108   54  117 1    
   109   55   56 2    
   110   55   57 1    
   111   57   58 1    
   112   57   59 1    
   113   57  118 1    
   114   58  119 1    
   115   58  120 1    
   116   58  121 1    
   117   59   60 am   BACKBONE|DICT|INTERRES
   118   59  122 1    
   119   60   61 2    
   120   60   62 1    
   121   62   63 1    
   122   62   64 1    
   123   62  123 1    
   124   63  124 1    
   125   63  125 1    
   126   63  126 1    
   127   64   65 am   BACKBONE|DICT|INTERRES
   128   64  127 1    
   129   65   66 2    
@<TRIPOS>SUBSTRUCTURE
     1 UNK         1 GROUP             0       ****    0 ROOT    
