@<TRIPOS>MOLECULE
3R135
127   129    1
SMALL
USER_CHARGES


@<TRIPOS>ATOM
      1 CA        -77.6618   21.6100  -75.1639 C.3       0 UNK        -0.1998 
      2 C         -77.7043   22.2737  -73.7952 C.2       0 UNK         0.4909 
      3 O         -77.3943   21.6310  -72.7918 O.2       0 UNK        -0.5240 
      4 N         -78.0854   23.5542  -73.7545 N.am      1 UNK        -0.4739 
      5 CA        -78.2455   24.3486  -72.5302 C.3       1 UNK         0.0864 
      6 C6        -77.8166   25.8217  -72.7356 C.3       11 UNK        -0.0881 
      7 S7        -76.0513   25.9337  -73.1724 S.3       11 UNK        -0.2682 
      8 C8        -75.5549   27.4980  -72.3846 C.3       11 UNK         0.0289 
      9 C9        -76.1355   28.7442  -73.0478 C.ar      11 UNK        -0.0687 
     10 C10       -76.3164   28.8242  -74.4348 C.ar      11 UNK        -0.0823 
     11 C11       -76.8120   29.9895  -75.0276 C.ar      11 UNK        -0.0830 
     12 C12       -77.1000   31.0941  -74.2215 C.ar      11 UNK        -0.1021 
     13 C13       -76.9005   31.0385  -72.8399 C.ar      11 UNK        -0.0753 
     14 C14       -76.4363   29.8564  -72.2574 C.ar      11 UNK        -0.0933 
     15 C15       -77.1728   32.2657  -71.9849 C.3       11 UNK         0.0166 
     16 S16       -75.7631   33.4204  -72.0080 S.3       11 UNK        -0.2615 
     17 C17       -74.5636   32.5863  -70.9107 C.3       11 UNK        -0.0865 
     18 CA        -73.2283   32.2141  -71.6114 C.3       10 UNK         0.0862 
     19 C         -72.2035   31.6675  -70.5701 C.2       10 UNK         0.5551 
     20 N         -71.7371   30.4269  -70.6621 N.am      10 UNK        -0.7319 
     21 O         -71.8213   32.3927  -69.6549 O.2       10 UNK        -0.5018 
     22 N         -73.4347   31.3472  -72.7839 N.am      10 UNK        -0.4509 
     23 C         -72.5165   31.1222  -73.7308 C.2       10 UNK         0.4899 
     24 O         -71.4329   31.7060  -73.8013 O.2       10 UNK        -0.4839 
     25 CA        -72.8599   30.0413  -74.7668 C.3       9 UNK         0.0222 
     26 CB        -73.1060   30.6534  -76.1541 C.3       9 UNK        -0.1966 
     27 N         -71.8174   29.0178  -74.8553 N.am      9 UNK        -0.4218 
     28 C         -71.4333   28.2143  -73.8545 C.2       9 UNK         0.5020 
     29 O         -71.9246   28.2550  -72.7238 O.2       9 UNK        -0.5274 
     30 CA        -70.3312   27.1841  -74.1800 C.3       8 UNK         0.0270 
     31 CB        -70.0034   26.2715  -72.9828 C.3       8 UNK        -0.1976 
     32 N         -70.6838   26.3450  -75.3295 N.am      8 UNK        -0.4313 
     33 C         -70.5941   26.7081  -76.6159 C.2       8 UNK         0.5041 
     34 O         -70.1695   27.8055  -76.9816 O.2       8 UNK        -0.5577 
     35 CA        -71.0910   25.6996  -77.6697 C.3       7 UNK         0.0284 
     36 CB        -69.9296   24.8187  -78.1580 C.3       7 UNK        -0.1958 
     37 N         -72.1954   24.8442  -77.2138 N.am      7 UNK        -0.4454 
     38 C         -73.4026   25.2944  -76.8455 C.2       7 UNK         0.5089 
     39 O         -73.7052   26.4907  -76.8255 O.2       7 UNK        -0.5125 
     40 CA        -74.4278   24.2310  -76.4048 C.3       6 UNK         0.0408 
     41 CB        -74.0091   23.5930  -75.0686 C.3       6 UNK        -0.1791 
     42 N         -75.7405   24.8574  -76.2439 N.am      6 UNK        -0.4762 
     43 C         -76.6082   25.0547  -77.2428 C.2       6 UNK         0.5007 
     44 O         -76.5454   24.4816  -78.3334 O.2       6 UNK        -0.5032 
     45 CA        -77.6728   26.1438  -77.0155 C.3       5 UNK         0.0783 
     46 C46       -77.1788   27.4770  -77.6297 C.3       11 UNK        -0.0857 
     47 S47       -78.2299   28.8964  -77.1727 S.3       11 UNK        -0.2512 
     48 C48       -76.9977   30.0830  -76.5377 C.3       11 UNK         0.0225 
     49 N         -78.9464   25.7269  -77.6017 N.am      5 UNK        -0.4615 
     50 C         -79.8217   24.9101  -77.0125 C.2       4 UNK         0.5053 
     51 O         -79.6848   24.4580  -75.8711 O.2       4 UNK        -0.5105 
     52 CA        -81.0410   24.5123  -77.8518 C.3       4 UNK         0.0263 
     53 CB        -80.7049   23.3167  -78.7586 C.3       4 UNK        -0.1981 
     54 N         -82.1208   24.1380  -76.9465 N.am      4 UNK        -0.4224 
     55 C         -83.3758   24.5998  -76.9828 C.2       3 UNK         0.4895 
     56 O         -83.8193   25.3172  -77.8805 O.2       3 UNK        -0.5091 
     57 CA        -84.2997   24.2009  -75.8145 C.3       3 UNK         0.0250 
     58 CB        -85.2508   23.0716  -76.2437 C.3       3 UNK        -0.1996 
     59 N         -83.5778   23.7864  -74.6048 N.am      3 UNK        -0.4254 
     60 C         -82.8462   24.6001  -73.8298 C.2       2 UNK         0.5004 
     61 O         -82.7346   25.8109  -74.0260 O.2       2 UNK        -0.5226 
     62 CA        -82.0815   23.9646  -72.6616 C.3       2 UNK         0.0269 
     63 CB        -82.4338   22.4869  -72.3818 C.3       2 UNK        -0.1926 
     64 N         -80.6537   24.0864  -72.9416 N.am      2 UNK        -0.4687 
     65 C         -79.6977   24.2701  -72.0222 C.2       1 UNK         0.5165 
     66 O         -79.9218   24.3612  -70.8141 O.2       1 UNK        -0.5079 
     67 H67       -77.8681   22.3178  -75.9668 H         1 UNK         0.0900 
     68 H68       -78.4007   20.8110  -75.2166 H         1 UNK         0.0900 
     69 H69       -76.6773   21.1785  -75.3418 H         1 UNK         0.0900 
     70 H70       -78.4194   23.9921  -74.6089 H         1 UNK         0.2959 
     71 H71       -77.6163   23.9270  -71.7427 H         1 UNK         0.1079 
     72 H72       -78.4074   26.2999  -73.5192 H         1 UNK         0.0837 
     73 H73       -77.9902   26.3984  -71.8247 H         1 UNK         0.0837 
     74 H74       -75.8251   27.4598  -71.3282 H         1 UNK         0.0685 
     75 H75       -74.4680   27.5679  -72.4211 H         1 UNK         0.0685 
     76 H76       -76.0512   27.9838  -75.0574 H         1 UNK         0.1434 
     77 H77       -77.4616   32.0102  -74.6688 H         1 UNK         0.1329 
     78 H78       -76.2872   29.8085  -71.1874 H         1 UNK         0.1335 
     79 H79       -78.0557   32.7834  -72.3630 H         1 UNK         0.0680 
     80 H80       -77.4055   31.9824  -70.9572 H         1 UNK         0.0680 
     81 H81       -75.0160   31.7017  -70.4616 H         1 UNK         0.1032 
     82 H82       -74.3725   33.2681  -70.0796 H         1 UNK         0.1032 
     83 H83       -72.7955   33.1444  -71.9845 H         1 UNK         0.0461 
     84 H84       -72.0107   29.8111  -71.4201 H         1 UNK         0.3453 
     85 H85       -71.0762   30.1026  -69.9747 H         1 UNK         0.3453 
     86 H86       -74.3103   30.8438  -72.8150 H         1 UNK         0.2984 
     87 H87       -73.7696   29.5339  -74.4531 H         1 UNK         0.0554 
     88 H88       -73.4057   29.8918  -76.8745 H         1 UNK         0.0847 
     89 H89       -72.2149   31.1503  -76.5396 H         1 UNK         0.0847 
     90 H90       -73.9043   31.3959  -76.1147 H         1 UNK         0.0847 
     91 H91       -71.3450   28.9063  -75.7470 H         1 UNK         0.3141 
     92 H92       -69.4283   27.7491  -74.4218 H         1 UNK         0.0743 
     93 H93       -69.6882   26.8587  -72.1190 H         1 UNK         0.0784 
     94 H94       -69.1906   25.5840  -73.2175 H         1 UNK         0.0784 
     95 H95       -70.8676   25.6802  -72.6770 H         1 UNK         0.0784 
     96 H96       -71.0806   25.4405  -75.1221 H         1 UNK         0.3213 
     97 H97       -71.4574   26.2800  -78.5194 H         1 UNK         0.0855 
     98 H98       -69.1042   25.4306  -78.5251 H         1 UNK         0.0814 
     99 H99       -70.2387   24.1714  -78.9790 H         1 UNK         0.0814 
    100 H100      -69.5364   24.1875  -77.3600 H         1 UNK         0.0814 
    101 H101      -72.0256   23.8483  -77.2089 H         1 UNK         0.3105 
    102 H102      -74.4795   23.4510  -77.1674 H         1 UNK         0.0547 
    103 H103      -73.8101   24.3444  -74.3036 H         1 UNK         0.0837 
    104 H104      -73.1017   22.9992  -75.1819 H         1 UNK         0.0837 
    105 H105      -74.7811   22.9259  -74.6860 H         1 UNK         0.0837 
    106 H106      -75.8554   25.3805  -75.3845 H         1 UNK         0.3020 
    107 H107      -77.8088   26.2828  -75.9406 H         1 UNK         0.1245 
    108 H108      -77.1510   27.4115  -78.7192 H         1 UNK         0.0781 
    109 H109      -76.1505   27.6813  -77.3267 H         1 UNK         0.0781 
    110 H110      -77.3311   31.0846  -76.8134 H         1 UNK         0.0836 
    111 H111      -76.0381   29.9464  -77.0372 H         1 UNK         0.0836 
    112 H112      -79.1129   26.0248  -78.5516 H         1 UNK         0.3022 
    113 H113      -81.3342   25.3668  -78.4657 H         1 UNK         0.0747 
    114 H114      -81.5671   23.0202  -79.3561 H         1 UNK         0.0793 
    115 H115      -79.8992   23.5628  -79.4515 H         1 UNK         0.0793 
    116 H116      -80.3843   22.4491  -78.1801 H         1 UNK         0.0793 
    117 H117      -81.8274   23.6076  -76.1384 H         1 UNK         0.3047 
    118 H118      -84.9003   25.0781  -75.5639 H         1 UNK         0.0822 
    119 H119      -85.9652   22.8321  -75.4557 H         1 UNK         0.0807 
    120 H120      -84.7082   22.1596  -76.4959 H         1 UNK         0.0807 
    121 H121      -85.8278   23.3605  -77.1235 H         1 UNK         0.0807 
    122 H122      -83.6189   22.8056  -74.3667 H         1 UNK         0.2946 
    123 H123      -82.3338   24.5536  -71.7765 H         1 UNK         0.1144 
    124 H124      -83.5012   22.3610  -72.1946 H         1 UNK         0.0793 
    125 H125      -81.9147   22.1265  -71.4933 H         1 UNK         0.0793 
    126 H126      -82.1536   21.8329  -73.2086 H         1 UNK         0.0793 
    127 H127      -80.3876   24.0938  -73.9205 H         1 UNK         0.2896 
@<TRIPOS>BOND
     1    1    2 1    
     2    1   67 1    
     3    1   68 1    
     4    1   69 1    
     5    2    3 2    
     6    2    4 am   BACKBONE|DICT|INTERRES
     7    4    5 1    
     8    4   70 1    
     9    5    6 1    
    10    5   65 1    
    11    5   71 1    
    12    6    7 1    
    13    6   72 1    
    14    6   73 1    
    15    7    8 1    
    16    8    9 1    
    17    8   74 1    
    18    8   75 1    
    19    9   10 ar   
    20    9   14 ar   
    21   10   11 ar   
    22   10   76 1    
    23   11   12 ar   
    24   11   48 1    
    25   12   13 ar   
    26   12   77 1    
    27   13   14 ar   
    28   13   15 1    
    29   14   78 1    
    30   15   16 1    
    31   15   79 1    
    32   15   80 1    
    33   16   17 1    
    34   17   18 1    
    35   17   81 1    
    36   17   82 1    
    37   18   19 1    
    38   18   22 1    
    39   18   83 1    
    40   19   20 am   BACKBONE|DICT|INTERRES
    41   19   21 2    
    42   20   84 1    
    43   20   85 1    
    44   22   23 am   BACKBONE|DICT|INTERRES
    45   22   86 1    
    46   23   24 2    
    47   23   25 1    
    48   25   26 1    
    49   25   27 1    
    50   25   87 1    
    51   26   88 1    
    52   26   89 1    
    53   26   90 1    
    54   27   28 am   BACKBONE|DICT|INTERRES
    55   27   91 1    
    56   28   29 2    
    57   28   30 1    
    58   30   31 1    
    59   30   32 1    
    60   30   92 1    
    61   31   93 1    
    62   31   94 1    
    63   31   95 1    
    64   32   33 am   BACKBONE|DICT|INTERRES
    65   32   96 1    
    66   33   34 2    
    67   33   35 1    
    68   35   36 1    
    69   35   37 1    
    70   35   97 1    
    71   36   98 1    
    72   36   99 1    
    73   36  100 1    
    74   37   38 am   BACKBONE|DICT|INTERRES
    75   37  101 1    
    76   38   39 2    
    77   38   40 1    
    78   40   41 1    
    79   40   42 1    
    80   40  102 1    
    81   41  103 1    
    82   41  104 1    
    83   41  105 1    
    84   42   43 am   BACKBONE|DICT|INTERRES
    85   42  106 1    
    86   43   44 2    
    87   43   45 1    
    88   45   46 1    
    89   45   49 1    
    90   45  107 1    
    91   46   47 1    
    92   46  108 1    
    93   46  109 1    
    94   47   48 1    
    95   48  110 1    
    96   48  111 1    
    97   49   50 am   BACKBONE|DICT|INTERRES
    98   49  112 1    
    99   50   51 2    
   100   50   52 1    
   101   52   53 1    
   102   52   54 1    
   103   52  113 1    
   104   53  114 1    
   105   53  115 1    
   106   53  116 1    
   107   54   55 am   BACKBONE|DICT|INTERRES
   108   54  117 1    
   109   55   56 2    
   110   55   57 1    
   111   57   58 1    
   112   57   59 1    
   113   57  118 1    
   114   58  119 1    
   115   58  120 1    
   116   58  121 1    
   117   59   60 am   BACKBONE|DICT|INTERRES
   118   59  122 1    
   119   60   61 2    
   120   60   62 1    
   121   62   63 1    
   122   62   64 1    
   123   62  123 1    
   124   63  124 1    
   125   63  125 1    
   126   63  126 1    
   127   64   65 am   BACKBONE|DICT|INTERRES
   128   64  127 1    
   129   65   66 2    
@<TRIPOS>SUBSTRUCTURE
     1 UNK         1 GROUP             0       ****    0 ROOT    
