@<TRIPOS>MOLECULE
3R135
127   129    1
SMALL
USER_CHARGES


@<TRIPOS>ATOM
      1 CA        -82.1851   29.3406  -76.5928 C.3       0 UNK        -0.1998 
      2 C         -81.6377   28.3761  -75.5512 C.2       0 UNK         0.4909 
      3 O         -80.8122   27.5262  -75.8804 O.2       0 UNK        -0.5240 
      4 N         -82.0838   28.5105  -74.2973 N.am      1 UNK        -0.4739 
      5 CA        -81.7084   27.6462  -73.1735 C.3       1 UNK         0.0864 
      6 C6        -82.0796   28.2989  -71.8153 C.3       11 UNK        -0.0881 
      7 S7        -81.2429   29.8956  -71.5178 S.3       11 UNK        -0.2682 
      8 C8        -80.1346   29.5038  -70.1240 C.3       11 UNK         0.0289 
      9 C9        -78.8224   28.9008  -70.6025 C.ar      11 UNK        -0.0687 
     10 C10       -78.7315   27.5344  -70.8811 C.ar      11 UNK        -0.0823 
     11 C11       -77.5406   26.9887  -71.3677 C.ar      11 UNK        -0.0830 
     12 C12       -76.4149   27.8063  -71.5106 C.ar      11 UNK        -0.1021 
     13 C13       -76.4926   29.1737  -71.2347 C.ar      11 UNK        -0.0753 
     14 C14       -77.7001   29.7159  -70.7834 C.ar      11 UNK        -0.0933 
     15 C15       -75.2812   30.0675  -71.4531 C.3       11 UNK         0.0166 
     16 S16       -74.9374   30.2821  -73.2291 S.3       11 UNK        -0.2615 
     17 C17       -73.9191   31.8001  -73.2258 C.3       11 UNK        -0.0865 
     18 CA        -72.3870   31.5563  -73.2751 C.3       10 UNK         0.0862 
     19 C         -71.8072   31.0857  -71.9072 C.2       10 UNK         0.5551 
     20 N         -71.0274   30.0136  -71.8339 N.am      10 UNK        -0.7319 
     21 O         -72.0603   31.7204  -70.8861 O.2       10 UNK        -0.5018 
     22 N         -72.0065   30.7288  -74.4298 N.am      10 UNK        -0.4509 
     23 C         -70.8379   30.8050  -75.0781 C.2       10 UNK         0.4899 
     24 O         -69.9769   31.6531  -74.8376 O.2       10 UNK        -0.4839 
     25 CA        -70.5925   29.7399  -76.1680 C.3       9 UNK         0.0222 
     26 CB        -69.1175   29.6737  -76.6168 C.3       9 UNK        -0.1966 
     27 N         -71.0707   28.4007  -75.7964 N.am      9 UNK        -0.4218 
     28 C         -70.7370   27.6941  -74.7019 C.2       9 UNK         0.5020 
     29 O         -69.9788   28.1102  -73.8252 O.2       9 UNK        -0.5274 
     30 CA        -71.3686   26.3017  -74.5229 C.3       8 UNK         0.0270 
     31 CB        -72.3836   26.3212  -73.3656 C.3       8 UNK        -0.1976 
     32 N         -72.0188   25.8115  -75.7418 N.am      8 UNK        -0.4313 
     33 C         -71.3635   25.2463  -76.7686 C.2       8 UNK         0.5041 
     34 O         -70.1542   25.0132  -76.7534 O.2       8 UNK        -0.5577 
     35 CA        -72.1686   24.8900  -78.0344 C.3       7 UNK         0.0284 
     36 CB        -72.4627   23.3818  -78.0747 C.3       7 UNK        -0.1958 
     37 N         -73.4259   25.6300  -78.1701 N.am      7 UNK        -0.4454 
     38 C         -73.5198   26.9557  -78.3616 C.2       7 UNK         0.5089 
     39 O         -72.5451   27.6970  -78.4871 O.2       7 UNK        -0.5125 
     40 CA        -74.9333   27.5717  -78.3322 C.3       6 UNK         0.0408 
     41 CB        -75.5048   27.6700  -79.7548 C.3       6 UNK        -0.1791 
     42 N         -75.8756   26.8396  -77.4781 N.am      6 UNK        -0.4762 
     43 C         -75.6864   26.5715  -76.1767 C.2       6 UNK         0.5007 
     44 O         -74.7248   26.9953  -75.5370 O.2       6 UNK        -0.5032 
     45 CA        -76.6746   25.6140  -75.4837 C.3       5 UNK         0.0783 
     46 C46       -77.6036   26.3799  -74.5191 C.3       11 UNK        -0.0857 
     47 S47       -78.4381   25.2587  -73.3401 S.3       11 UNK        -0.2512 
     48 C48       -77.4885   25.5318  -71.8041 C.3       11 UNK         0.0225 
     49 N         -77.4440   24.7822  -76.4131 N.am      5 UNK        -0.4615 
     50 C         -76.9568   23.8517  -77.2407 C.2       4 UNK         0.5053 
     51 O         -75.7512   23.6510  -77.3973 O.2       4 UNK        -0.5105 
     52 CA        -78.0002   23.0115  -78.0079 C.3       4 UNK         0.0263 
     53 CB        -77.3521   21.9067  -78.8630 C.3       4 UNK        -0.1981 
     54 N         -78.9865   22.4018  -77.1063 N.am      4 UNK        -0.4224 
     55 C         -79.9976   23.0433  -76.5029 C.2       3 UNK         0.4895 
     56 O         -80.2463   24.2348  -76.6944 O.2       3 UNK        -0.5091 
     57 CA        -80.8475   22.2528  -75.4973 C.3       3 UNK         0.0250 
     58 CB        -80.1606   20.9740  -74.9638 C.3       3 UNK        -0.1996 
     59 N         -81.2015   23.1356  -74.3853 N.am      3 UNK        -0.4254 
     60 C         -82.2492   22.9672  -73.5715 C.2       2 UNK         0.5004 
     61 O         -83.0737   22.0608  -73.6988 O.2       2 UNK        -0.5226 
     62 CA        -82.3969   23.9442  -72.3939 C.3       2 UNK         0.0269 
     63 CB        -81.7805   23.3340  -71.1238 C.3       2 UNK        -0.1926 
     64 N         -81.7924   25.2603  -72.6200 N.am      2 UNK        -0.4687 
     65 C         -82.3883   26.2622  -73.2793 C.2       1 UNK         0.5165 
     66 O         -83.4681   26.1431  -73.8650 O.2       1 UNK        -0.5079 
     67 H67       -81.3710   29.9088  -77.0419 H         1 UNK         0.0900 
     68 H68       -82.8945   30.0470  -76.1619 H         1 UNK         0.0900 
     69 H69       -82.6929   28.7889  -77.3833 H         1 UNK         0.0900 
     70 H70       -82.7678   29.2225  -74.0861 H         1 UNK         0.2959 
     71 H71       -80.6265   27.4977  -73.2108 H         1 UNK         0.1079 
     72 H72       -83.1557   28.4775  -71.7654 H         1 UNK         0.0837 
     73 H73       -81.8612   27.6227  -70.9873 H         1 UNK         0.0837 
     74 H74       -80.6291   28.8345  -69.4186 H         1 UNK         0.0685 
     75 H75       -79.9379   30.4242  -69.5721 H         1 UNK         0.0685 
     76 H76       -79.5974   26.9007  -70.7573 H         1 UNK         0.1434 
     77 H77       -75.4898   27.3931  -71.8899 H         1 UNK         0.1329 
     78 H78       -77.7708   30.7761  -70.5819 H         1 UNK         0.1335 
     79 H79       -74.4082   29.6313  -70.9655 H         1 UNK         0.0680 
     80 H80       -75.4437   31.0402  -70.9866 H         1 UNK         0.0680 
     81 H81       -74.1870   32.4327  -72.3777 H         1 UNK         0.1032 
     82 H82       -74.2084   32.3781  -74.1048 H         1 UNK         0.1032 
     83 H83       -71.9394   32.5402  -73.4283 H         1 UNK         0.0461 
     84 H84       -70.6616   29.7387  -70.9368 H         1 UNK         0.3453 
     85 H85       -70.7668   29.4871  -72.6610 H         1 UNK         0.3453 
     86 H86       -72.6549   29.9928  -74.6706 H         1 UNK         0.2984 
     87 H87       -71.1864   30.0455  -77.0306 H         1 UNK         0.0554 
     88 H88       -68.9768   28.9363  -77.4071 H         1 UNK         0.0847 
     89 H89       -68.4558   29.4104  -75.7908 H         1 UNK         0.0847 
     90 H90       -68.7825   30.6346  -77.0093 H         1 UNK         0.0847 
     91 H91       -71.6981   27.9700  -76.4654 H         1 UNK         0.3141 
     92 H92       -70.5670   25.6109  -74.2526 H         1 UNK         0.0743 
     93 H93       -73.1461   27.0884  -73.5032 H         1 UNK         0.0784 
     94 H94       -72.8862   25.3602  -73.2560 H         1 UNK         0.0784 
     95 H95       -71.8853   26.5358  -72.4193 H         1 UNK         0.0784 
     96 H96       -73.0114   26.0087  -75.8285 H         1 UNK         0.3213 
     97 H97       -71.5441   25.1392  -78.8951 H         1 UNK         0.0855 
     98 H98       -73.0740   23.0678  -77.2276 H         1 UNK         0.0814 
     99 H99       -71.5388   22.8027  -78.0415 H         1 UNK         0.0814 
    100 H100      -72.9876   23.1019  -78.9883 H         1 UNK         0.0814 
    101 H101      -74.2788   25.0953  -78.0415 H         1 UNK         0.3105 
    102 H102      -74.8419   28.5818  -77.9276 H         1 UNK         0.0547 
    103 H103      -74.8331   28.2306  -80.4066 H         1 UNK         0.0837 
    104 H104      -75.6467   26.6857  -80.2029 H         1 UNK         0.0837 
    105 H105      -76.4651   28.1859  -79.7633 H         1 UNK         0.0837 
    106 H106      -76.6915   26.4480  -77.9261 H         1 UNK         0.3020 
    107 H107      -76.0537   24.9382  -74.8909 H         1 UNK         0.1245 
    108 H108      -78.3669   26.9223  -75.0784 H         1 UNK         0.0781 
    109 H109      -77.0505   27.1451  -73.9773 H         1 UNK         0.0781 
    110 H110      -76.4581   25.2074  -71.9578 H         1 UNK         0.0836 
    111 H111      -77.8954   24.8990  -71.0140 H         1 UNK         0.0836 
    112 H112      -78.4552   24.8735  -76.3624 H         1 UNK         0.3022 
    113 H113      -78.5221   23.6914  -78.6847 H         1 UNK         0.0747 
    114 H114      -78.1000   21.3547  -79.4326 H         1 UNK         0.0793 
    115 H115      -76.6490   22.3300  -79.5818 H         1 UNK         0.0793 
    116 H116      -76.8007   21.1925  -78.2501 H         1 UNK         0.0793 
    117 H117      -78.8300   21.4335  -76.8661 H         1 UNK         0.3047 
    118 H118      -81.7613   21.9675  -76.0227 H         1 UNK         0.0822 
    119 H119      -79.9711   20.2561  -75.7625 H         1 UNK         0.0807 
    120 H120      -80.7876   20.4625  -74.2332 H         1 UNK         0.0807 
    121 H121      -79.2099   21.1993  -74.4783 H         1 UNK         0.0807 
    122 H122      -80.6068   23.9451  -74.2605 H         1 UNK         0.2946 
    123 H123      -83.4677   24.0761  -72.2196 H         1 UNK         0.1144 
    124 H124      -82.2223   22.3610  -70.9034 H         1 UNK         0.0793 
    125 H125      -81.9519   23.9689  -70.2542 H         1 UNK         0.0793 
    126 H126      -80.7045   23.1870  -71.2271 H         1 UNK         0.0793 
    127 H127      -80.8913   25.4188  -72.1927 H         1 UNK         0.2896 
@<TRIPOS>BOND
     1    1    2 1    
     2    1   67 1    
     3    1   68 1    
     4    1   69 1    
     5    2    3 2    
     6    2    4 am   BACKBONE|DICT|INTERRES
     7    4    5 1    
     8    4   70 1    
     9    5    6 1    
    10    5   65 1    
    11    5   71 1    
    12    6    7 1    
    13    6   72 1    
    14    6   73 1    
    15    7    8 1    
    16    8    9 1    
    17    8   74 1    
    18    8   75 1    
    19    9   10 ar   
    20    9   14 ar   
    21   10   11 ar   
    22   10   76 1    
    23   11   12 ar   
    24   11   48 1    
    25   12   13 ar   
    26   12   77 1    
    27   13   14 ar   
    28   13   15 1    
    29   14   78 1    
    30   15   16 1    
    31   15   79 1    
    32   15   80 1    
    33   16   17 1    
    34   17   18 1    
    35   17   81 1    
    36   17   82 1    
    37   18   19 1    
    38   18   22 1    
    39   18   83 1    
    40   19   20 am   BACKBONE|DICT|INTERRES
    41   19   21 2    
    42   20   84 1    
    43   20   85 1    
    44   22   23 am   BACKBONE|DICT|INTERRES
    45   22   86 1    
    46   23   24 2    
    47   23   25 1    
    48   25   26 1    
    49   25   27 1    
    50   25   87 1    
    51   26   88 1    
    52   26   89 1    
    53   26   90 1    
    54   27   28 am   BACKBONE|DICT|INTERRES
    55   27   91 1    
    56   28   29 2    
    57   28   30 1    
    58   30   31 1    
    59   30   32 1    
    60   30   92 1    
    61   31   93 1    
    62   31   94 1    
    63   31   95 1    
    64   32   33 am   BACKBONE|DICT|INTERRES
    65   32   96 1    
    66   33   34 2    
    67   33   35 1    
    68   35   36 1    
    69   35   37 1    
    70   35   97 1    
    71   36   98 1    
    72   36   99 1    
    73   36  100 1    
    74   37   38 am   BACKBONE|DICT|INTERRES
    75   37  101 1    
    76   38   39 2    
    77   38   40 1    
    78   40   41 1    
    79   40   42 1    
    80   40  102 1    
    81   41  103 1    
    82   41  104 1    
    83   41  105 1    
    84   42   43 am   BACKBONE|DICT|INTERRES
    85   42  106 1    
    86   43   44 2    
    87   43   45 1    
    88   45   46 1    
    89   45   49 1    
    90   45  107 1    
    91   46   47 1    
    92   46  108 1    
    93   46  109 1    
    94   47   48 1    
    95   48  110 1    
    96   48  111 1    
    97   49   50 am   BACKBONE|DICT|INTERRES
    98   49  112 1    
    99   50   51 2    
   100   50   52 1    
   101   52   53 1    
   102   52   54 1    
   103   52  113 1    
   104   53  114 1    
   105   53  115 1    
   106   53  116 1    
   107   54   55 am   BACKBONE|DICT|INTERRES
   108   54  117 1    
   109   55   56 2    
   110   55   57 1    
   111   57   58 1    
   112   57   59 1    
   113   57  118 1    
   114   58  119 1    
   115   58  120 1    
   116   58  121 1    
   117   59   60 am   BACKBONE|DICT|INTERRES
   118   59  122 1    
   119   60   61 2    
   120   60   62 1    
   121   62   63 1    
   122   62   64 1    
   123   62  123 1    
   124   63  124 1    
   125   63  125 1    
   126   63  126 1    
   127   64   65 am   BACKBONE|DICT|INTERRES
   128   64  127 1    
   129   65   66 2    
@<TRIPOS>SUBSTRUCTURE
     1 UNK         1 GROUP             0       ****    0 ROOT    
