@<TRIPOS>MOLECULE
3R135
127   129    1
SMALL
USER_CHARGES


@<TRIPOS>ATOM
      1 CA        -83.6227   24.3976  -73.6481 C.3       0 UNK        -0.1998 
      2 C         -82.7607   25.4212  -74.3713 C.2       0 UNK         0.4909 
      3 O         -82.8457   25.5316  -75.5947 O.2       0 UNK        -0.5240 
      4 N         -81.9347   26.1648  -73.6213 N.am      1 UNK        -0.4739 
      5 CA        -81.0143   27.2076  -74.0937 C.3       1 UNK         0.0864 
      6 C6        -80.1994   27.8045  -72.9164 C.3       11 UNK        -0.0881 
      7 S7        -81.0594   29.1854  -72.0943 S.3       11 UNK        -0.2682 
      8 C8        -80.2272   29.2555  -70.4700 C.3       11 UNK         0.0289 
      9 C9        -78.7072   29.2179  -70.5809 C.ar      11 UNK        -0.0687 
     10 C10       -78.0146   28.0544  -70.2300 C.ar      11 UNK        -0.0823 
     11 C11       -76.6255   27.9731  -70.3852 C.ar      11 UNK        -0.0830 
     12 C12       -75.9310   29.0967  -70.8383 C.ar      11 UNK        -0.1021 
     13 C13       -76.6031   30.2757  -71.1668 C.ar      11 UNK        -0.0753 
     14 C14       -77.9953   30.3308  -71.0428 C.ar      11 UNK        -0.0933 
     15 C15       -75.8090   31.4762  -71.6584 C.3       11 UNK         0.0166 
     16 S16       -75.6415   31.4398  -73.4683 S.3       11 UNK        -0.2615 
     17 C17       -74.0921   32.3606  -73.7508 C.3       11 UNK        -0.0865 
     18 CA        -73.0641   31.5493  -74.5860 C.3       10 UNK         0.0862 
     19 C         -71.8496   32.4470  -74.9516 C.2       10 UNK         0.5551 
     20 N         -71.8843   33.0988  -76.1057 N.am      10 UNK        -0.7319 
     21 O         -70.9056   32.5943  -74.1772 O.2       10 UNK        -0.5018 
     22 N         -72.6671   30.3028  -73.9099 N.am      10 UNK        -0.4509 
     23 C         -71.8941   29.3440  -74.4411 C.2       10 UNK         0.4899 
     24 O         -71.4646   29.3756  -75.5952 O.2       10 UNK        -0.4839 
     25 CA        -71.5109   28.1571  -73.5359 C.3       9 UNK         0.0222 
     26 CB        -72.1531   28.1957  -72.1345 C.3       9 UNK        -0.1966 
     27 N         -71.8761   26.8981  -74.1850 N.am      9 UNK        -0.4218 
     28 C         -71.0426   26.1019  -74.8678 C.2       9 UNK         0.5020 
     29 O         -69.8377   26.3187  -75.0088 O.2       9 UNK        -0.5274 
     30 CA        -71.6538   24.8338  -75.4896 C.3       8 UNK         0.0270 
     31 CB        -71.9191   23.7680  -74.4128 C.3       8 UNK        -0.1976 
     32 N         -72.8926   25.1098  -76.2171 N.am      8 UNK        -0.4313 
     33 C         -72.9610   25.7375  -77.4004 C.2       8 UNK         0.5041 
     34 O         -71.9759   26.0777  -78.0565 O.2       8 UNK        -0.5577 
     35 CA        -74.3680   26.0576  -77.9336 C.3       7 UNK         0.0284 
     36 CB        -74.9960   24.8414  -78.6347 C.3       7 UNK        -0.1958 
     37 N         -75.2398   26.5240  -76.8546 N.am      7 UNK        -0.4454 
     38 C         -75.1904   27.7619  -76.3426 C.2       7 UNK         0.5089 
     39 O         -74.5315   28.6763  -76.8357 O.2       7 UNK        -0.5125 
     40 CA        -76.0023   28.0354  -75.0656 C.3       6 UNK         0.0408 
     41 CB        -77.1750   28.9851  -75.3544 C.3       6 UNK        -0.1791 
     42 N         -76.4867   26.8166  -74.4068 N.am      6 UNK        -0.4762 
     43 C         -75.7202   26.0301  -73.6393 C.2       6 UNK         0.5007 
     44 O         -74.5190   26.2220  -73.4548 O.2       6 UNK        -0.5032 
     45 CA        -76.3980   24.7913  -73.0212 C.3       5 UNK         0.0783 
     46 C46       -77.4158   25.1901  -71.9217 C.3       11 UNK        -0.0857 
     47 S47       -76.7404   25.1259  -70.2286 S.3       11 UNK        -0.2512 
     48 C48       -75.8318   26.7049  -70.0669 C.3       11 UNK         0.0225 
     49 N         -77.0111   23.9107  -74.0217 N.am      5 UNK        -0.4615 
     50 C         -76.3815   23.3493  -75.0610 C.2       4 UNK         0.5053 
     51 O         -75.2277   23.6169  -75.3932 O.2       4 UNK        -0.5105 
     52 CA        -77.1739   22.3073  -75.8545 C.3       4 UNK         0.0263 
     53 CB        -77.2970   20.9991  -75.0457 C.3       4 UNK        -0.1981 
     54 N         -78.4876   22.8252  -76.2437 N.am      4 UNK        -0.4224 
     55 C         -79.2840   22.2619  -77.1655 C.2       3 UNK         0.4895 
     56 O         -79.0274   21.2029  -77.7397 O.2       3 UNK        -0.5091 
     57 CA        -80.5853   23.0030  -77.5321 C.3       3 UNK         0.0250 
     58 CB        -81.7532   22.4728  -76.6855 C.3       3 UNK        -0.1996 
     59 N         -80.5053   24.4598  -77.3893 N.am      3 UNK        -0.4254 
     60 C         -79.6404   25.2506  -78.0428 C.2       2 UNK         0.5004 
     61 O         -78.8665   24.8425  -78.9088 O.2       2 UNK        -0.5226 
     62 CA        -79.5999   26.7421  -77.6644 C.3       2 UNK         0.0269 
     63 CB        -80.0980   27.6127  -78.8296 C.3       2 UNK        -0.1926 
     64 N         -80.3490   27.0989  -76.4531 N.am      2 UNK        -0.4687 
     65 C         -80.0768   26.6900  -75.2058 C.2       1 UNK         0.5165 
     66 O         -79.1430   25.9352  -74.9232 O.2       1 UNK        -0.5079 
     67 H67       -83.4346   23.3999  -74.0430 H         1 UNK         0.0900 
     68 H68       -83.4251   24.3808  -72.5765 H         1 UNK         0.0900 
     69 H69       -84.6776   24.6276  -73.7951 H         1 UNK         0.0900 
     70 H70       -81.9268   26.0143  -72.6229 H         1 UNK         0.2959 
     71 H71       -81.6254   28.0007  -74.5298 H         1 UNK         0.1079 
     72 H72       -79.2353   28.1948  -73.2441 H         1 UNK         0.0837 
     73 H73       -79.9727   27.0325  -72.1805 H         1 UNK         0.0837 
     74 H74       -80.5306   30.1689  -69.9565 H         1 UNK         0.0685 
     75 H75       -80.5876   28.4285  -69.8562 H         1 UNK         0.0685 
     76 H76       -78.5668   27.2007  -69.8631 H         1 UNK         0.1434 
     77 H77       -74.8567   29.0573  -70.9372 H         1 UNK         0.1329 
     78 H78       -78.5256   31.2333  -71.3146 H         1 UNK         0.1335 
     79 H79       -74.8240   31.4762  -71.1893 H         1 UNK         0.0680 
     80 H80       -76.2950   32.4057  -71.3583 H         1 UNK         0.0680 
     81 H81       -74.3579   33.2833  -74.2705 H         1 UNK         0.1032 
     82 H82       -73.6541   32.6710  -72.8006 H         1 UNK         0.1032 
     83 H83       -73.5504   31.2528  -75.5181 H         1 UNK         0.0461 
     84 H84       -72.6584   32.9894  -76.7425 H         1 UNK         0.3453 
     85 H85       -71.1139   33.7001  -76.3532 H         1 UNK         0.3453 
     86 H86       -72.9693   30.2066  -72.9534 H         1 UNK         0.2984 
     87 H87       -70.4288   28.2044  -73.3994 H         1 UNK         0.0554 
     88 H88       -71.8633   29.0908  -71.5827 H         1 UNK         0.0847 
     89 H89       -71.8357   27.3406  -71.5373 H         1 UNK         0.0847 
     90 H90       -73.2401   28.1654  -72.1921 H         1 UNK         0.0847 
     91 H91       -72.8530   26.6226  -74.0972 H         1 UNK         0.3141 
     92 H92       -70.9284   24.4250  -76.1964 H         1 UNK         0.0743 
     93 H93       -71.0074   23.5341  -73.8615 H         1 UNK         0.0784 
     94 H94       -72.6645   24.0990  -73.6885 H         1 UNK         0.0784 
     95 H95       -72.2780   22.8392  -74.8567 H         1 UNK         0.0784 
     96 H96       -73.7545   24.7850  -75.7860 H         1 UNK         0.3213 
     97 H97       -74.2718   26.8546  -78.6747 H         1 UNK         0.0855 
     98 H98       -75.0835   23.9812  -77.9721 H         1 UNK         0.0814 
     99 H99       -74.3877   24.5313  -79.4852 H         1 UNK         0.0814 
    100 H100      -75.9909   25.0726  -79.0162 H         1 UNK         0.0814 
    101 H101      -75.7884   25.8288  -76.3700 H         1 UNK         0.3105 
    102 H102      -75.3302   28.5498  -74.3750 H         1 UNK         0.0547 
    103 H103      -77.6563   29.3076  -74.4325 H         1 UNK         0.0837 
    104 H104      -76.8272   29.8884  -75.8574 H         1 UNK         0.0837 
    105 H105      -77.9267   28.5348  -75.9957 H         1 UNK         0.0837 
    106 H106      -77.4574   26.5486  -74.5588 H         1 UNK         0.3020 
    107 H107      -75.6016   24.2000  -72.5630 H         1 UNK         0.1245 
    108 H108      -78.2596   24.4983  -71.9196 H         1 UNK         0.0781 
    109 H109      -77.8634   26.1626  -72.1176 H         1 UNK         0.0781 
    110 H110      -74.9499   26.6502  -70.7071 H         1 UNK         0.0836 
    111 H111      -75.4591   26.7820  -69.0449 H         1 UNK         0.0836 
    112 H112      -77.9654   23.6407  -73.8364 H         1 UNK         0.3022 
    113 H113      -76.6079   22.0996  -76.7654 H         1 UNK         0.0747 
    114 H114      -77.7071   20.1893  -75.6487 H         1 UNK         0.0793 
    115 H115      -76.3207   20.6656  -74.6907 H         1 UNK         0.0793 
    116 H116      -77.9387   21.1207  -74.1724 H         1 UNK         0.0793 
    117 H117      -78.7535   23.7250  -75.8622 H         1 UNK         0.3047 
    118 H118      -80.7972   22.7899  -78.5819 H         1 UNK         0.0822 
    119 H119      -81.8730   21.3963  -76.8156 H         1 UNK         0.0807 
    120 H120      -82.6963   22.9400  -76.9702 H         1 UNK         0.0807 
    121 H121      -81.5938   22.6569  -75.6226 H         1 UNK         0.0807 
    122 H122      -81.1447   24.8905  -76.7298 H         1 UNK         0.2946 
    123 H123      -78.5472   26.9731  -77.4946 H         1 UNK         0.1144 
    124 H124      -79.9728   28.6741  -78.6144 H         1 UNK         0.0793 
    125 H125      -81.1524   27.4336  -79.0438 H         1 UNK         0.0793 
    126 H126      -79.5399   27.4035  -79.7435 H         1 UNK         0.0793 
    127 H127      -81.1672   27.6741  -76.5970 H         1 UNK         0.2896 
@<TRIPOS>BOND
     1    1    2 1    
     2    1   67 1    
     3    1   68 1    
     4    1   69 1    
     5    2    3 2    
     6    2    4 am   BACKBONE|DICT|INTERRES
     7    4    5 1    
     8    4   70 1    
     9    5    6 1    
    10    5   65 1    
    11    5   71 1    
    12    6    7 1    
    13    6   72 1    
    14    6   73 1    
    15    7    8 1    
    16    8    9 1    
    17    8   74 1    
    18    8   75 1    
    19    9   10 ar   
    20    9   14 ar   
    21   10   11 ar   
    22   10   76 1    
    23   11   12 ar   
    24   11   48 1    
    25   12   13 ar   
    26   12   77 1    
    27   13   14 ar   
    28   13   15 1    
    29   14   78 1    
    30   15   16 1    
    31   15   79 1    
    32   15   80 1    
    33   16   17 1    
    34   17   18 1    
    35   17   81 1    
    36   17   82 1    
    37   18   19 1    
    38   18   22 1    
    39   18   83 1    
    40   19   20 am   BACKBONE|DICT|INTERRES
    41   19   21 2    
    42   20   84 1    
    43   20   85 1    
    44   22   23 am   BACKBONE|DICT|INTERRES
    45   22   86 1    
    46   23   24 2    
    47   23   25 1    
    48   25   26 1    
    49   25   27 1    
    50   25   87 1    
    51   26   88 1    
    52   26   89 1    
    53   26   90 1    
    54   27   28 am   BACKBONE|DICT|INTERRES
    55   27   91 1    
    56   28   29 2    
    57   28   30 1    
    58   30   31 1    
    59   30   32 1    
    60   30   92 1    
    61   31   93 1    
    62   31   94 1    
    63   31   95 1    
    64   32   33 am   BACKBONE|DICT|INTERRES
    65   32   96 1    
    66   33   34 2    
    67   33   35 1    
    68   35   36 1    
    69   35   37 1    
    70   35   97 1    
    71   36   98 1    
    72   36   99 1    
    73   36  100 1    
    74   37   38 am   BACKBONE|DICT|INTERRES
    75   37  101 1    
    76   38   39 2    
    77   38   40 1    
    78   40   41 1    
    79   40   42 1    
    80   40  102 1    
    81   41  103 1    
    82   41  104 1    
    83   41  105 1    
    84   42   43 am   BACKBONE|DICT|INTERRES
    85   42  106 1    
    86   43   44 2    
    87   43   45 1    
    88   45   46 1    
    89   45   49 1    
    90   45  107 1    
    91   46   47 1    
    92   46  108 1    
    93   46  109 1    
    94   47   48 1    
    95   48  110 1    
    96   48  111 1    
    97   49   50 am   BACKBONE|DICT|INTERRES
    98   49  112 1    
    99   50   51 2    
   100   50   52 1    
   101   52   53 1    
   102   52   54 1    
   103   52  113 1    
   104   53  114 1    
   105   53  115 1    
   106   53  116 1    
   107   54   55 am   BACKBONE|DICT|INTERRES
   108   54  117 1    
   109   55   56 2    
   110   55   57 1    
   111   57   58 1    
   112   57   59 1    
   113   57  118 1    
   114   58  119 1    
   115   58  120 1    
   116   58  121 1    
   117   59   60 am   BACKBONE|DICT|INTERRES
   118   59  122 1    
   119   60   61 2    
   120   60   62 1    
   121   62   63 1    
   122   62   64 1    
   123   62  123 1    
   124   63  124 1    
   125   63  125 1    
   126   63  126 1    
   127   64   65 am   BACKBONE|DICT|INTERRES
   128   64  127 1    
   129   65   66 2    
@<TRIPOS>SUBSTRUCTURE
     1 UNK         1 GROUP             0       ****    0 ROOT    
