@<TRIPOS>MOLECULE
3R135
127   129    1
SMALL
USER_CHARGES


@<TRIPOS>ATOM
      1 CA        -80.0886   24.0832  -72.6264 C.3       0 UNK        -0.1998 
      2 C         -80.2926   25.3039  -73.5092 C.2       0 UNK         0.4909 
      3 O         -79.3905   25.6628  -74.2675 O.2       0 UNK        -0.5240 
      4 N         -81.4832   25.9165  -73.4204 N.am      1 UNK        -0.4739 
      5 CA        -81.8894   27.1878  -74.0495 C.3       1 UNK         0.0864 
      6 C6        -81.2303   28.4194  -73.3743 C.3       11 UNK        -0.0881 
      7 S7        -81.7794   28.5693  -71.6426 S.3       11 UNK        -0.2682 
      8 C8        -80.8570   30.0432  -71.1008 C.3       11 UNK         0.0289 
      9 C9        -79.3631   29.8027  -70.9019 C.ar      11 UNK        -0.0687 
     10 C10       -78.8893   28.6338  -70.2921 C.ar      11 UNK        -0.0823 
     11 C11       -77.5227   28.4561  -70.0603 C.ar      11 UNK        -0.0830 
     12 C12       -76.6318   29.4725  -70.4097 C.ar      11 UNK        -0.1021 
     13 C13       -77.0825   30.6304  -71.0471 C.ar      11 UNK        -0.0753 
     14 C14       -78.4502   30.7893  -71.2896 C.ar      11 UNK        -0.0933 
     15 C15       -76.0938   31.7091  -71.4669 C.3       11 UNK         0.0166 
     16 S16       -75.1448   31.2129  -72.9412 S.3       11 UNK        -0.2615 
     17 C17       -73.8705   30.1216  -72.2131 C.3       11 UNK        -0.0865 
     18 CA        -72.5032   30.2477  -72.9303 C.3       10 UNK         0.0862 
     19 C         -71.3671   29.5185  -72.1509 C.2       10 UNK         0.5551 
     20 N         -70.5413   28.6862  -72.7752 N.am      10 UNK        -0.7319 
     21 O         -71.2197   29.7250  -70.9488 O.2       10 UNK        -0.5018 
     22 N         -72.6077   29.8464  -74.3396 N.am      10 UNK        -0.4509 
     23 C         -71.8900   30.3722  -75.3385 C.2       10 UNK         0.4899 
     24 O         -71.1086   31.3154  -75.2020 O.2       10 UNK        -0.4839 
     25 CA        -72.0686   29.7076  -76.7161 C.3       9 UNK         0.0222 
     26 CB        -70.9908   30.1310  -77.7366 C.3       9 UNK        -0.1966 
     27 N         -72.1572   28.2442  -76.6300 N.am      9 UNK        -0.4218 
     28 C         -71.2387   27.4025  -76.1258 C.2       9 UNK         0.5020 
     29 O         -70.1693   27.7794  -75.6439 O.2       9 UNK        -0.5274 
     30 CA        -71.5543   25.8924  -76.1121 C.3       8 UNK         0.0270 
     31 CB        -71.5225   25.3486  -74.6727 C.3       8 UNK        -0.1976 
     32 N         -72.8394   25.5452  -76.7230 N.am      8 UNK        -0.4313 
     33 C         -73.0986   25.5532  -78.0374 C.2       8 UNK         0.5041 
     34 O         -72.2464   25.7621  -78.9013 O.2       8 UNK        -0.5577 
     35 CA        -74.5646   25.3495  -78.4579 C.3       7 UNK         0.0284 
     36 CB        -74.8591   23.8589  -78.6831 C.3       7 UNK        -0.1958 
     37 N         -75.5294   25.9101  -77.5030 N.am      7 UNK        -0.4454 
     38 C         -75.6332   27.2107  -77.1910 C.2       7 UNK         0.5089 
     39 O         -74.9223   28.0867  -77.6827 O.2       7 UNK        -0.5125 
     40 CA        -76.6705   27.5994  -76.1243 C.3       6 UNK         0.0408 
     41 CB        -78.0770   27.6810  -76.7316 C.3       6 UNK        -0.1791 
     42 N         -76.6817   26.6790  -74.9880 N.am      6 UNK        -0.4762 
     43 C         -75.6785   26.5464  -74.1087 C.2       6 UNK         0.5007 
     44 O         -74.6542   27.2329  -74.1291 O.2       6 UNK        -0.5032 
     45 CA        -75.8195   25.4027  -73.0824 C.3       5 UNK         0.0783 
     46 C46       -76.7189   25.7842  -71.8753 C.3       11 UNK        -0.0857 
     47 S47       -75.7333   26.3620  -70.4555 S.3       11 UNK        -0.2512 
     48 C48       -77.0033   27.1726  -69.4270 C.3       11 UNK         0.0225 
     49 N         -76.2542   24.1539  -73.7198 N.am      5 UNK        -0.4615 
     50 C         -75.4976   23.4487  -74.5707 C.2       4 UNK         0.5053 
     51 O         -74.3756   23.7966  -74.9345 O.2       4 UNK        -0.5105 
     52 CA        -76.0826   22.1361  -75.1188 C.3       4 UNK         0.0263 
     53 CB        -75.8590   20.9948  -74.1136 C.3       4 UNK        -0.1981 
     54 N         -77.4992   22.1776  -75.4985 N.am      4 UNK        -0.4224 
     55 C         -78.0741   23.0674  -76.3197 C.2       3 UNK         0.4895 
     56 O         -77.5045   24.0691  -76.7536 O.2       3 UNK        -0.5091 
     57 CA        -79.5175   22.7862  -76.7605 C.3       3 UNK         0.0250 
     58 CB        -80.2888   21.7948  -75.8627 C.3       3 UNK        -0.1996 
     59 N         -80.2393   24.0511  -76.8401 N.am      3 UNK        -0.4254 
     60 C         -81.1541   24.3669  -77.7651 C.2       2 UNK         0.5004 
     61 O         -81.4981   23.6104  -78.6750 O.2       2 UNK        -0.5226 
     62 CA        -81.8192   25.7447  -77.6167 C.3       2 UNK         0.0269 
     63 CB        -83.1629   25.8543  -78.3631 C.3       2 UNK        -0.1926 
     64 N         -82.0213   26.0276  -76.1967 N.am      2 UNK        -0.4687 
     65 C         -81.7558   27.1880  -75.5891 C.2       1 UNK         0.5165 
     66 O         -81.4255   28.2106  -76.1918 O.2       1 UNK        -0.5079 
     67 H67       -79.3361   23.4206  -73.0506 H         1 UNK         0.0900 
     68 H68       -79.7531   24.3905  -71.6365 H         1 UNK         0.0900 
     69 H69       -81.0125   23.5159  -72.5155 H         1 UNK         0.0900 
     70 H70       -82.1686   25.5344  -72.7832 H         1 UNK         0.2959 
     71 H71       -82.9649   27.2699  -73.8819 H         1 UNK         0.1079 
     72 H72       -80.1414   28.3479  -73.4126 H         1 UNK         0.0837 
     73 H73       -81.5019   29.3450  -73.8853 H         1 UNK         0.0837 
     74 H74       -81.0291   30.8469  -71.8186 H         1 UNK         0.0685 
     75 H75       -81.2762   30.3826  -70.1529 H         1 UNK         0.0685 
     76 H76       -79.5864   27.8634  -69.9929 H         1 UNK         0.1434 
     77 H77       -75.5799   29.3425  -70.2034 H         1 UNK         0.1329 
     78 H78       -78.8062   31.6922  -71.7667 H         1 UNK         0.1335 
     79 H79       -75.4199   31.9447  -70.6420 H         1 UNK         0.0680 
     80 H80       -76.6229   32.6354  -71.6958 H         1 UNK         0.0680 
     81 H81       -74.2269   29.0904  -72.2407 H         1 UNK         0.1032 
     82 H82       -73.7564   30.3788  -71.1590 H         1 UNK         0.1032 
     83 H83       -72.2297   31.3041  -72.8979 H         1 UNK         0.0461 
     84 H84       -69.8123   28.2357  -72.2460 H         1 UNK         0.3453 
     85 H85       -70.6037   28.5297  -73.7740 H         1 UNK         0.3453 
     86 H86       -73.2172   29.0602  -74.5280 H         1 UNK         0.2984 
     87 H87       -73.0326   30.0500  -77.0947 H         1 UNK         0.0554 
     88 H88       -71.0058   31.2098  -77.8965 H         1 UNK         0.0847 
     89 H89       -71.1552   29.6589  -78.7052 H         1 UNK         0.0847 
     90 H90       -69.9877   29.8666  -77.4003 H         1 UNK         0.0847 
     91 H91       -73.0264   27.8542  -76.9804 H         1 UNK         0.3141 
     92 H92       -70.7632   25.3972  -76.6787 H         1 UNK         0.0743 
     93 H93       -72.2963   25.8037  -74.0533 H         1 UNK         0.0784 
     94 H94       -71.6704   24.2687  -74.6538 H         1 UNK         0.0784 
     95 H95       -70.5628   25.5485  -74.1945 H         1 UNK         0.0784 
     96 H96       -73.5832   25.2763  -76.0853 H         1 UNK         0.3213 
     97 H97       -74.7069   25.8708  -79.4069 H         1 UNK         0.0855 
     98 H98       -74.7337   23.2834  -77.7666 H         1 UNK         0.0814 
     99 H99       -74.1844   23.4361  -79.4287 H         1 UNK         0.0814 
    100 H100      -75.8769   23.7038  -79.0415 H         1 UNK         0.0814 
    101 H101      -76.1921   25.2573  -77.0843 H         1 UNK         0.3105 
    102 H102      -76.4069   28.5908  -75.7491 H         1 UNK         0.0547 
    103 H103      -78.7910   28.0533  -75.9981 H         1 UNK         0.0837 
    104 H104      -78.4284   26.7084  -77.0777 H         1 UNK         0.0837 
    105 H105      -78.1003   28.3626  -77.5826 H         1 UNK         0.0837 
    106 H106      -77.5036   26.0901  -74.8855 H         1 UNK         0.3020 
    107 H107      -74.8099   25.2068  -72.7121 H         1 UNK         0.1245 
    108 H108      -77.2806   24.9177  -71.5241 H         1 UNK         0.0781 
    109 H109      -77.4689   26.5312  -72.1451 H         1 UNK         0.0781 
    110 H110      -76.5707   27.4104  -68.4543 H         1 UNK         0.0836 
    111 H111      -77.8150   26.4677  -69.2402 H         1 UNK         0.0836 
    112 H112      -77.1826   23.8251  -73.5064 H         1 UNK         0.3022 
    113 H113      -75.5241   21.8926  -76.0240 H         1 UNK         0.0747 
    114 H114      -76.1362   20.0299  -74.5385 H         1 UNK         0.0793 
    115 H115      -74.8086   20.9277  -73.8255 H         1 UNK         0.0793 
    116 H116      -76.4384   21.1398  -73.2009 H         1 UNK         0.0793 
    117 H117      -78.0602   21.3957  -75.1933 H         1 UNK         0.3047 
    118 H118      -79.4404   22.3535  -77.7603 H         1 UNK         0.0822 
    119 H119      -81.3098   21.6597  -76.2205 H         1 UNK         0.0807 
    120 H120      -80.3483   22.1378  -74.8304 H         1 UNK         0.0807 
    121 H121      -79.8270   20.8069  -75.8647 H         1 UNK         0.0807 
    122 H122      -79.9597   24.7530  -76.1624 H         1 UNK         0.2946 
    123 H123      -81.1228   26.4680  -78.0479 H         1 UNK         0.1144 
    124 H124      -83.8850   25.1222  -78.0001 H         1 UNK         0.0793 
    125 H125      -83.0329   25.6856  -79.4329 H         1 UNK         0.0793 
    126 H126      -83.6011   26.8453  -78.2444 H         1 UNK         0.0793 
    127 H127      -82.2788   25.2376  -75.6203 H         1 UNK         0.2896 
@<TRIPOS>BOND
     1    1    2 1    
     2    1   67 1    
     3    1   68 1    
     4    1   69 1    
     5    2    3 2    
     6    2    4 am   BACKBONE|DICT|INTERRES
     7    4    5 1    
     8    4   70 1    
     9    5    6 1    
    10    5   65 1    
    11    5   71 1    
    12    6    7 1    
    13    6   72 1    
    14    6   73 1    
    15    7    8 1    
    16    8    9 1    
    17    8   74 1    
    18    8   75 1    
    19    9   10 ar   
    20    9   14 ar   
    21   10   11 ar   
    22   10   76 1    
    23   11   12 ar   
    24   11   48 1    
    25   12   13 ar   
    26   12   77 1    
    27   13   14 ar   
    28   13   15 1    
    29   14   78 1    
    30   15   16 1    
    31   15   79 1    
    32   15   80 1    
    33   16   17 1    
    34   17   18 1    
    35   17   81 1    
    36   17   82 1    
    37   18   19 1    
    38   18   22 1    
    39   18   83 1    
    40   19   20 am   BACKBONE|DICT|INTERRES
    41   19   21 2    
    42   20   84 1    
    43   20   85 1    
    44   22   23 am   BACKBONE|DICT|INTERRES
    45   22   86 1    
    46   23   24 2    
    47   23   25 1    
    48   25   26 1    
    49   25   27 1    
    50   25   87 1    
    51   26   88 1    
    52   26   89 1    
    53   26   90 1    
    54   27   28 am   BACKBONE|DICT|INTERRES
    55   27   91 1    
    56   28   29 2    
    57   28   30 1    
    58   30   31 1    
    59   30   32 1    
    60   30   92 1    
    61   31   93 1    
    62   31   94 1    
    63   31   95 1    
    64   32   33 am   BACKBONE|DICT|INTERRES
    65   32   96 1    
    66   33   34 2    
    67   33   35 1    
    68   35   36 1    
    69   35   37 1    
    70   35   97 1    
    71   36   98 1    
    72   36   99 1    
    73   36  100 1    
    74   37   38 am   BACKBONE|DICT|INTERRES
    75   37  101 1    
    76   38   39 2    
    77   38   40 1    
    78   40   41 1    
    79   40   42 1    
    80   40  102 1    
    81   41  103 1    
    82   41  104 1    
    83   41  105 1    
    84   42   43 am   BACKBONE|DICT|INTERRES
    85   42  106 1    
    86   43   44 2    
    87   43   45 1    
    88   45   46 1    
    89   45   49 1    
    90   45  107 1    
    91   46   47 1    
    92   46  108 1    
    93   46  109 1    
    94   47   48 1    
    95   48  110 1    
    96   48  111 1    
    97   49   50 am   BACKBONE|DICT|INTERRES
    98   49  112 1    
    99   50   51 2    
   100   50   52 1    
   101   52   53 1    
   102   52   54 1    
   103   52  113 1    
   104   53  114 1    
   105   53  115 1    
   106   53  116 1    
   107   54   55 am   BACKBONE|DICT|INTERRES
   108   54  117 1    
   109   55   56 2    
   110   55   57 1    
   111   57   58 1    
   112   57   59 1    
   113   57  118 1    
   114   58  119 1    
   115   58  120 1    
   116   58  121 1    
   117   59   60 am   BACKBONE|DICT|INTERRES
   118   59  122 1    
   119   60   61 2    
   120   60   62 1    
   121   62   63 1    
   122   62   64 1    
   123   62  123 1    
   124   63  124 1    
   125   63  125 1    
   126   63  126 1    
   127   64   65 am   BACKBONE|DICT|INTERRES
   128   64  127 1    
   129   65   66 2    
@<TRIPOS>SUBSTRUCTURE
     1 UNK         1 GROUP             0       ****    0 ROOT    
