@<TRIPOS>MOLECULE
3R135
127   129    1
SMALL
USER_CHARGES


@<TRIPOS>ATOM
      1 CA        -84.0659   28.4665  -75.9196 C.3       0 UNK        -0.1998 
      2 C         -84.3641   28.8582  -74.4739 C.2       0 UNK         0.4909 
      3 O         -85.4573   29.3494  -74.1977 O.2       0 UNK        -0.5240 
      4 N         -83.4364   28.6827  -73.5222 N.am      1 UNK        -0.4739 
      5 CA        -82.1176   28.0495  -73.6640 C.3       1 UNK         0.0864 
      6 C6        -81.2099   28.3459  -72.4425 C.3       11 UNK        -0.0881 
      7 S7        -80.9468   30.1379  -72.1928 S.3       11 UNK        -0.2682 
      8 C8        -79.9886   30.1742  -70.6424 C.3       11 UNK         0.0289 
      9 C9        -78.5742   29.6571  -70.8534 C.ar      11 UNK        -0.0687 
     10 C10       -78.2710   28.3212  -70.5822 C.ar      11 UNK        -0.0823 
     11 C11       -77.0023   27.8106  -70.8674 C.ar      11 UNK        -0.0830 
     12 C12       -76.0172   28.6593  -71.3832 C.ar      11 UNK        -0.1021 
     13 C13       -76.2983   30.0073  -71.6257 C.ar      11 UNK        -0.0753 
     14 C14       -77.5797   30.5011  -71.3585 C.ar      11 UNK        -0.0933 
     15 C15       -75.2312   30.9131  -72.2232 C.3       11 UNK         0.0166 
     16 S16       -73.8608   31.1932  -71.0597 S.3       11 UNK        -0.2615 
     17 C17       -72.8186   32.3610  -72.0042 C.3       11 UNK        -0.0865 
     18 CA        -71.5299   31.7768  -72.6632 C.3       10 UNK         0.0862 
     19 C         -70.4628   31.1579  -71.7062 C.2       10 UNK         0.5551 
     20 N         -70.5576   31.3703  -70.4003 N.am      10 UNK        -0.7319 
     21 O         -69.4936   30.5476  -72.1537 O.2       10 UNK        -0.5018 
     22 N         -71.8044   30.9991  -73.8844 N.am      10 UNK        -0.4509 
     23 C         -72.1046   29.6963  -73.9847 C.2       10 UNK         0.4899 
     24 O         -72.2457   28.9384  -73.0225 O.2       10 UNK        -0.4839 
     25 CA        -72.3432   29.1744  -75.4186 C.3       9 UNK         0.0222 
     26 CB        -71.3986   29.7965  -76.4729 C.3       9 UNK        -0.1966 
     27 N         -72.3287   27.7104  -75.4965 N.am      9 UNK        -0.4218 
     28 C         -71.2910   26.8838  -75.3002 C.2       9 UNK         0.5020 
     29 O         -70.1334   27.2531  -75.0947 O.2       9 UNK        -0.5274 
     30 CA        -71.5960   25.3756  -75.3397 C.3       8 UNK         0.0270 
     31 CB        -72.1002   24.8964  -73.9684 C.3       8 UNK        -0.1976 
     32 N         -72.5615   24.9985  -76.3775 N.am      8 UNK        -0.4313 
     33 C         -72.3203   25.0457  -77.6960 C.2       8 UNK         0.5041 
     34 O         -71.2440   25.3941  -78.1837 O.2       8 UNK        -0.5577 
     35 CA        -73.4687   24.6324  -78.6344 C.3       7 UNK         0.0284 
     36 CB        -73.5911   23.1021  -78.7157 C.3       7 UNK        -0.1958 
     37 N         -74.7544   25.2121  -78.2420 N.am      7 UNK        -0.4454 
     38 C         -75.0545   26.5162  -78.3283 C.2       7 UNK         0.5089 
     39 O         -74.3111   27.3618  -78.8266 O.2       7 UNK        -0.5125 
     40 CA        -76.4010   26.9603  -77.7292 C.3       6 UNK         0.0408 
     41 CB        -77.5382   26.7854  -78.7474 C.3       6 UNK        -0.1791 
     42 N         -76.7351   26.2541  -76.4898 N.am      6 UNK        -0.4762 
     43 C         -76.0122   26.3157  -75.3623 C.2       6 UNK         0.5007 
     44 O         -75.0095   27.0148  -75.2336 O.2       6 UNK        -0.5032 
     45 CA        -76.4473   25.4150  -74.1940 C.3       5 UNK         0.0783 
     46 C46       -77.5957   26.0672  -73.3976 C.3       11 UNK        -0.0857 
     47 S47       -77.8102   25.2978  -71.7562 S.3       11 UNK        -0.2512 
     48 C48       -76.7248   26.3232  -70.7014 C.3       11 UNK         0.0225 
     49 N         -76.7880   24.0668  -74.6503 N.am      5 UNK        -0.4615 
     50 C         -75.9182   23.1994  -75.1823 C.2       4 UNK         0.5053 
     51 O         -74.7155   23.4247  -75.3059 O.2       4 UNK        -0.5105 
     52 CA        -76.5020   21.8789  -75.7087 C.3       4 UNK         0.0263 
     53 CB        -76.6595   20.8630  -74.5664 C.3       4 UNK        -0.1981 
     54 N         -77.7899   22.0702  -76.3817 N.am      4 UNK        -0.4224 
     55 C         -77.9504   22.7553  -77.5237 C.2       3 UNK         0.4895 
     56 O         -77.0212   23.2499  -78.1623 O.2       3 UNK        -0.5091 
     57 CA        -79.3974   22.9655  -78.0030 C.3       3 UNK         0.0250 
     58 CB        -79.8986   21.7347  -78.7753 C.3       3 UNK        -0.1996 
     59 N         -80.3273   23.2804  -76.9102 N.am      3 UNK        -0.4254 
     60 C         -80.2517   24.3863  -76.1573 C.2       2 UNK         0.5004 
     61 O         -79.3884   25.2549  -76.3054 O.2       2 UNK        -0.5226 
     62 CA        -81.2735   24.5339  -75.0243 C.3       2 UNK         0.0269 
     63 CB        -80.8926   23.6365  -73.8295 C.3       2 UNK        -0.1926 
     64 N         -81.3070   25.9406  -74.6229 N.am      2 UNK        -0.4687 
     65 C         -82.2565   26.5266  -73.8864 C.2       1 UNK         0.5165 
     66 O         -83.2112   25.9177  -73.3969 O.2       1 UNK        -0.5079 
     67 H67       -84.0491   27.3831  -76.0325 H         1 UNK         0.0900 
     68 H68       -84.8383   28.8546  -76.5834 H         1 UNK         0.0900 
     69 H69       -83.1142   28.8745  -76.2574 H         1 UNK         0.0900 
     70 H70       -83.6678   28.9576  -72.5788 H         1 UNK         0.2959 
     71 H71       -81.6305   28.4747  -74.5434 H         1 UNK         0.1079 
     72 H72       -80.2340   27.8753  -72.5767 H         1 UNK         0.0837 
     73 H73       -81.6362   27.9213  -71.5313 H         1 UNK         0.0837 
     74 H74       -80.5051   29.5926  -69.8771 H         1 UNK         0.0685 
     75 H75       -79.9519   31.2003  -70.2735 H         1 UNK         0.0685 
     76 H76       -79.0398   27.6605  -70.2050 H         1 UNK         0.1434 
     77 H77       -75.0349   28.2722  -71.6210 H         1 UNK         0.1329 
     78 H78       -77.8149   31.5353  -71.5703 H         1 UNK         0.1335 
     79 H79       -75.6613   31.8743  -72.5089 H         1 UNK         0.0680 
     80 H80       -74.8474   30.4598  -73.1377 H         1 UNK         0.0680 
     81 H81       -72.5426   33.1710  -71.3271 H         1 UNK         0.1032 
     82 H82       -73.4274   32.8437  -72.7700 H         1 UNK         0.1032 
     83 H83       -71.0043   32.6489  -73.0541 H         1 UNK         0.0461 
     84 H84       -69.8508   30.9950  -69.7878 H         1 UNK         0.3453 
     85 H85       -71.3578   31.8468  -70.0151 H         1 UNK         0.3453 
     86 H86       -71.6983   31.5155  -74.7449 H         1 UNK         0.2984 
     87 H87       -73.3624   29.4634  -75.6788 H         1 UNK         0.0554 
     88 H88       -71.5946   30.8600  -76.6102 H         1 UNK         0.0847 
     89 H89       -71.5323   29.3247  -77.4467 H         1 UNK         0.0847 
     90 H90       -70.3499   29.6883  -76.1932 H         1 UNK         0.0847 
     91 H91       -73.2559   27.2920  -75.5595 H         1 UNK         0.3141 
     92 H92       -70.6597   24.8560  -75.5543 H         1 UNK         0.0743 
     93 H93       -71.3858   25.1434  -73.1819 H         1 UNK         0.0784 
     94 H94       -73.0499   25.3626  -73.7037 H         1 UNK         0.0784 
     95 H95       -72.2410   23.8155  -73.9521 H         1 UNK         0.0784 
     96 H96       -73.4513   24.6226  -76.0572 H         1 UNK         0.3213 
     97 H97       -73.2276   25.0024  -79.6334 H         1 UNK         0.0855 
     98 H98       -73.8439   22.6616  -77.7513 H         1 UNK         0.0814 
     99 H99       -72.6522   22.6534  -79.0429 H         1 UNK         0.0814 
    100 H100      -74.3596   22.8039  -79.4292 H         1 UNK         0.0814 
    101 H101      -75.4610   24.5762  -77.8859 H         1 UNK         0.3105 
    102 H102      -76.3221   28.0228  -77.4898 H         1 UNK         0.0547 
    103 H103      -77.3309   27.3413  -79.6627 H         1 UNK         0.0837 
    104 H104      -78.4852   27.1526  -78.3515 H         1 UNK         0.0837 
    105 H105      -77.6758   25.7403  -79.0249 H         1 UNK         0.0837 
    106 H106      -77.5914   25.7032  -76.4930 H         1 UNK         0.3020 
    107 H107      -75.5803   25.3299  -73.5350 H         1 UNK         0.1245 
    108 H108      -78.5369   25.9747  -73.9370 H         1 UNK         0.0781 
    109 H109      -77.4413   27.1408  -73.2931 H         1 UNK         0.0781 
    110 H110      -75.6846   26.0937  -70.9378 H         1 UNK         0.0836 
    111 H111      -76.8725   26.0429  -69.6577 H         1 UNK         0.0836 
    112 H112      -77.7615   23.8110  -74.6035 H         1 UNK         0.3022 
    113 H113      -75.7973   21.4708  -76.4365 H         1 UNK         0.0747 
    114 H114      -77.0027   19.8976  -74.9389 H         1 UNK         0.0793 
    115 H115      -75.7064   20.6937  -74.0631 H         1 UNK         0.0793 
    116 H116      -77.3697   21.2048  -73.8123 H         1 UNK         0.0793 
    117 H117      -78.6076   21.6880  -75.9297 H         1 UNK         0.3047 
    118 H118      -79.3921   23.8159  -78.6884 H         1 UNK         0.0822 
    119 H119      -80.8858   21.9103  -79.2033 H         1 UNK         0.0807 
    120 H120      -79.9604   20.8514  -78.1386 H         1 UNK         0.0807 
    121 H121      -79.2281   21.4943  -79.6018 H         1 UNK         0.0807 
    122 H122      -81.0620   22.6108  -76.7299 H         1 UNK         0.2946 
    123 H123      -82.2576   24.2499  -75.4042 H         1 UNK         0.1144 
    124 H124      -79.9190   23.9016  -73.4186 H         1 UNK         0.0793 
    125 H125      -80.8498   22.5864  -74.1205 H         1 UNK         0.0793 
    126 H126      -81.6222   23.7115  -73.0233 H         1 UNK         0.0793 
    127 H127      -80.5588   26.4890  -75.0311 H         1 UNK         0.2896 
@<TRIPOS>BOND
     1    1    2 1    
     2    1   67 1    
     3    1   68 1    
     4    1   69 1    
     5    2    3 2    
     6    2    4 am   BACKBONE|DICT|INTERRES
     7    4    5 1    
     8    4   70 1    
     9    5    6 1    
    10    5   65 1    
    11    5   71 1    
    12    6    7 1    
    13    6   72 1    
    14    6   73 1    
    15    7    8 1    
    16    8    9 1    
    17    8   74 1    
    18    8   75 1    
    19    9   10 ar   
    20    9   14 ar   
    21   10   11 ar   
    22   10   76 1    
    23   11   12 ar   
    24   11   48 1    
    25   12   13 ar   
    26   12   77 1    
    27   13   14 ar   
    28   13   15 1    
    29   14   78 1    
    30   15   16 1    
    31   15   79 1    
    32   15   80 1    
    33   16   17 1    
    34   17   18 1    
    35   17   81 1    
    36   17   82 1    
    37   18   19 1    
    38   18   22 1    
    39   18   83 1    
    40   19   20 am   BACKBONE|DICT|INTERRES
    41   19   21 2    
    42   20   84 1    
    43   20   85 1    
    44   22   23 am   BACKBONE|DICT|INTERRES
    45   22   86 1    
    46   23   24 2    
    47   23   25 1    
    48   25   26 1    
    49   25   27 1    
    50   25   87 1    
    51   26   88 1    
    52   26   89 1    
    53   26   90 1    
    54   27   28 am   BACKBONE|DICT|INTERRES
    55   27   91 1    
    56   28   29 2    
    57   28   30 1    
    58   30   31 1    
    59   30   32 1    
    60   30   92 1    
    61   31   93 1    
    62   31   94 1    
    63   31   95 1    
    64   32   33 am   BACKBONE|DICT|INTERRES
    65   32   96 1    
    66   33   34 2    
    67   33   35 1    
    68   35   36 1    
    69   35   37 1    
    70   35   97 1    
    71   36   98 1    
    72   36   99 1    
    73   36  100 1    
    74   37   38 am   BACKBONE|DICT|INTERRES
    75   37  101 1    
    76   38   39 2    
    77   38   40 1    
    78   40   41 1    
    79   40   42 1    
    80   40  102 1    
    81   41  103 1    
    82   41  104 1    
    83   41  105 1    
    84   42   43 am   BACKBONE|DICT|INTERRES
    85   42  106 1    
    86   43   44 2    
    87   43   45 1    
    88   45   46 1    
    89   45   49 1    
    90   45  107 1    
    91   46   47 1    
    92   46  108 1    
    93   46  109 1    
    94   47   48 1    
    95   48  110 1    
    96   48  111 1    
    97   49   50 am   BACKBONE|DICT|INTERRES
    98   49  112 1    
    99   50   51 2    
   100   50   52 1    
   101   52   53 1    
   102   52   54 1    
   103   52  113 1    
   104   53  114 1    
   105   53  115 1    
   106   53  116 1    
   107   54   55 am   BACKBONE|DICT|INTERRES
   108   54  117 1    
   109   55   56 2    
   110   55   57 1    
   111   57   58 1    
   112   57   59 1    
   113   57  118 1    
   114   58  119 1    
   115   58  120 1    
   116   58  121 1    
   117   59   60 am   BACKBONE|DICT|INTERRES
   118   59  122 1    
   119   60   61 2    
   120   60   62 1    
   121   62   63 1    
   122   62   64 1    
   123   62  123 1    
   124   63  124 1    
   125   63  125 1    
   126   63  126 1    
   127   64   65 am   BACKBONE|DICT|INTERRES
   128   64  127 1    
   129   65   66 2    
@<TRIPOS>SUBSTRUCTURE
     1 UNK         1 GROUP             0       ****    0 ROOT    
