@<TRIPOS>MOLECULE
3R135
127   129    1
SMALL
USER_CHARGES


@<TRIPOS>ATOM
      1 CA        -84.1762   28.7690  -72.3031 C.3       0 UNK        -0.1998 
      2 C         -83.2984   28.8997  -73.5387 C.2       0 UNK         0.4909 
      3 O         -83.8137   29.1171  -74.6357 O.2       0 UNK        -0.5240 
      4 N         -81.9762   28.7720  -73.3665 N.am      1 UNK        -0.4739 
      5 CA        -80.9786   28.8481  -74.4428 C.3       1 UNK         0.0864 
      6 C6        -79.5451   29.0456  -73.8885 C.3       11 UNK        -0.0881 
      7 S7        -79.3276   30.6671  -73.0751 S.3       11 UNK        -0.2682 
      8 C8        -79.5825   30.2905  -71.3087 C.3       11 UNK         0.0289 
      9 C9        -78.4080   29.5346  -70.7062 C.ar      11 UNK        -0.0687 
     10 C10       -78.4630   28.1460  -70.5564 C.ar      11 UNK        -0.0823 
     11 C11       -77.3698   27.4392  -70.0418 C.ar      11 UNK        -0.0830 
     12 C12       -76.2391   28.1467  -69.6217 C.ar      11 UNK        -0.1021 
     13 C13       -76.1848   29.5391  -69.7343 C.ar      11 UNK        -0.0753 
     14 C14       -77.2686   30.2272  -70.2871 C.ar      11 UNK        -0.0933 
     15 C15       -74.9632   30.2958  -69.2338 C.3       11 UNK         0.0166 
     16 S16       -73.5449   30.1429  -70.3639 S.3       11 UNK        -0.2615 
     17 C17       -74.0518   31.2026  -71.7639 C.3       11 UNK        -0.0865 
     18 CA        -74.1743   30.4243  -73.1001 C.3       10 UNK         0.0862 
     19 C         -74.6726   31.3787  -74.2209 C.2       10 UNK         0.5551 
     20 N         -75.9773   31.4382  -74.4505 N.am      10 UNK        -0.7319 
     21 O         -73.8944   32.1055  -74.8361 O.2       10 UNK        -0.5018 
     22 N         -72.9143   29.7294  -73.4146 N.am      10 UNK        -0.4509 
     23 C         -72.6532   28.9873  -74.4977 C.2       10 UNK         0.4899 
     24 O         -73.4368   28.8290  -75.4352 O.2       10 UNK        -0.4839 
     25 CA        -71.2823   28.2815  -74.4959 C.3       9 UNK         0.0222 
     26 CB        -71.2081   27.2178  -73.3852 C.3       9 UNK        -0.1966 
     27 N         -70.9934   27.6314  -75.7741 N.am      9 UNK        -0.4218 
     28 C         -70.6033   28.2484  -76.8939 C.2       9 UNK         0.5020 
     29 O         -70.3365   29.4499  -76.9536 O.2       9 UNK        -0.5274 
     30 CA        -70.4914   27.3946  -78.1723 C.3       8 UNK         0.0270 
     31 CB        -69.0983   26.7452  -78.2911 C.3       8 UNK        -0.1976 
     32 N         -71.5704   26.4092  -78.3498 N.am      8 UNK        -0.4313 
     33 C         -71.8356   25.2984  -77.6487 C.2       8 UNK         0.5041 
     34 O         -71.1731   24.9223  -76.6796 O.2       8 UNK        -0.5577 
     35 CA        -73.0991   24.5209  -78.0659 C.3       7 UNK         0.0284 
     36 CB        -73.0248   23.0349  -77.6709 C.3       7 UNK        -0.1958 
     37 N         -74.2903   25.1082  -77.4547 N.am      7 UNK        -0.4454 
     38 C         -74.8063   26.3100  -77.7398 C.2       7 UNK         0.5089 
     39 O         -74.4083   27.0073  -78.6754 O.2       7 UNK        -0.5125 
     40 CA        -75.9579   26.8294  -76.8561 C.3       6 UNK         0.0408 
     41 CB        -77.2036   27.1350  -77.7040 C.3       6 UNK        -0.1791 
     42 N         -76.3501   25.9564  -75.7444 N.am      6 UNK        -0.4762 
     43 C         -75.6293   25.6813  -74.6462 C.2       6 UNK         0.5007 
     44 O         -74.4584   26.0142  -74.4828 O.2       6 UNK        -0.5032 
     45 CA        -76.3535   24.8985  -73.5402 C.3       5 UNK         0.0783 
     46 C46       -77.3217   25.8474  -72.7982 C.3       11 UNK        -0.0857 
     47 S47       -78.1609   25.0730  -71.3752 S.3       11 UNK        -0.2512 
     48 C48       -77.3796   25.9130  -69.9493 C.3       11 UNK         0.0225 
     49 N         -77.0373   23.7427  -74.1193 N.am      5 UNK        -0.4615 
     50 C         -76.4736   22.5450  -74.3163 C.2       4 UNK         0.5053 
     51 O         -75.3301   22.2599  -73.9607 O.2       4 UNK        -0.5105 
     52 CA        -77.3235   21.4811  -75.0360 C.3       4 UNK         0.0263 
     53 CB        -78.0862   20.6240  -74.0129 C.3       4 UNK        -0.1981 
     54 N         -78.2756   22.0517  -75.9927 N.am      4 UNK        -0.4224 
     55 C         -77.9329   22.6692  -77.1324 C.2       3 UNK         0.4895 
     56 O         -76.7756   22.7603  -77.5415 O.2       3 UNK        -0.5091 
     57 CA        -79.0690   23.3221  -77.9424 C.3       3 UNK         0.0250 
     58 CB        -79.5990   22.3417  -79.0012 C.3       3 UNK        -0.1996 
     59 N         -80.1955   23.8306  -77.1452 N.am      3 UNK        -0.4254 
     60 C         -80.1066   24.7143  -76.1405 C.2       2 UNK         0.5004 
     61 O         -79.0388   25.1363  -75.6937 O.2       2 UNK        -0.5226 
     62 CA        -81.4301   25.1509  -75.4891 C.3       2 UNK         0.0269 
     63 CB        -81.8936   24.0902  -74.4767 C.3       2 UNK        -0.1926 
     64 N         -81.3281   26.4398  -74.7970 N.am      2 UNK        -0.4687 
     65 C         -81.0443   27.6181  -75.3740 C.2       1 UNK         0.5165 
     66 O         -80.8675   27.7650  -76.5844 O.2       1 UNK        -0.5079 
     67 H67       -84.7533   29.6814  -72.1552 H         1 UNK         0.0900 
     68 H68       -84.8736   27.9405  -72.4247 H         1 UNK         0.0900 
     69 H69       -83.5900   28.5894  -71.4020 H         1 UNK         0.0900 
     70 H70       -81.6134   28.6050  -72.4404 H         1 UNK         0.2959 
     71 H71       -81.2225   29.7157  -75.0607 H         1 UNK         0.1079 
     72 H72       -78.8151   28.9982  -74.6996 H         1 UNK         0.0837 
     73 H73       -79.2787   28.2421  -73.2035 H         1 UNK         0.0837 
     74 H74       -80.5102   29.7344  -71.1742 H         1 UNK         0.0685 
     75 H75       -79.7184   31.2304  -70.7715 H         1 UNK         0.0685 
     76 H76       -79.3478   27.6093  -70.8684 H         1 UNK         0.1434 
     77 H77       -75.3920   27.6155  -69.2089 H         1 UNK         0.1329 
     78 H78       -77.2315   31.3034  -70.3866 H         1 UNK         0.1335 
     79 H79       -74.6746   29.9013  -68.2584 H         1 UNK         0.0680 
     80 H80       -75.1935   31.3507  -69.0758 H         1 UNK         0.0680 
     81 H81       -73.3189   32.0064  -71.8595 H         1 UNK         0.1032 
     82 H82       -74.9968   31.6924  -71.5235 H         1 UNK         0.1032 
     83 H83       -74.9269   29.6438  -72.9680 H         1 UNK         0.0461 
     84 H84       -76.3192   32.0687  -75.1582 H         1 UNK         0.3453 
     85 H85       -76.6293   30.8739  -73.9280 H         1 UNK         0.3453 
     86 H86       -72.2058   29.7974  -72.6992 H         1 UNK         0.2984 
     87 H87       -70.5142   29.0346  -74.3080 H         1 UNK         0.0554 
     88 H88       -71.3651   27.6551  -72.3986 H         1 UNK         0.0847 
     89 H89       -70.2329   26.7310  -73.3675 H         1 UNK         0.0847 
     90 H90       -71.9642   26.4435  -73.5212 H         1 UNK         0.0847 
     91 H91       -71.1872   26.6353  -75.8427 H         1 UNK         0.3141 
     92 H92       -70.5968   28.0859  -79.0101 H         1 UNK         0.0743 
     93 H93       -68.3145   27.5035  -78.2682 H         1 UNK         0.0784 
     94 H94       -68.8985   26.0515  -77.4740 H         1 UNK         0.0784 
     95 H95       -68.9936   26.1991  -79.2286 H         1 UNK         0.0784 
     96 H96       -72.2813   26.6824  -79.0202 H         1 UNK         0.3213 
     97 H97       -73.1972   24.5776  -79.1522 H         1 UNK         0.0855 
     98 H98       -72.9750   22.9043  -76.5889 H         1 UNK         0.0814 
     99 H99       -72.1401   22.5615  -78.0986 H         1 UNK         0.0814 
    100 H100      -73.8947   22.4857  -78.0324 H         1 UNK         0.0814 
    101 H101      -74.6856   24.6137  -76.6683 H         1 UNK         0.3105 
    102 H102      -75.6193   27.7702  -76.4207 H         1 UNK         0.0547 
    103 H103      -76.9786   27.8593  -78.4878 H         1 UNK         0.0837 
    104 H104      -78.0060   27.5562  -77.0978 H         1 UNK         0.0837 
    105 H105      -77.5868   26.2385  -78.1896 H         1 UNK         0.0837 
    106 H106      -77.3128   25.6212  -75.7699 H         1 UNK         0.3020 
    107 H107      -75.5993   24.5556  -72.8276 H         1 UNK         0.1245 
    108 H108      -78.0994   26.2056  -73.4736 H         1 UNK         0.0781 
    109 H109      -76.7835   26.7384  -72.4725 H         1 UNK         0.0781 
    110 H110      -76.3606   25.5343  -69.8542 H         1 UNK         0.0836 
    111 H111      -77.9033   25.6200  -69.0387 H         1 UNK         0.0836 
    112 H112      -77.9603   23.9238  -74.4961 H         1 UNK         0.3022 
    113 H113      -76.6400   20.8314  -75.5871 H         1 UNK         0.0747 
    114 H114      -78.6349   19.8176  -74.4999 H         1 UNK         0.0793 
    115 H115      -77.3989   20.1628  -73.3021 H         1 UNK         0.0793 
    116 H116      -78.7982   21.2181  -73.4383 H         1 UNK         0.0793 
    117 H117      -79.2529   22.0184  -75.7427 H         1 UNK         0.3047 
    118 H118      -78.6355   24.1760  -78.4648 H         1 UNK         0.0822 
    119 H119      -80.3167   22.8231  -79.6658 H         1 UNK         0.0807 
    120 H120      -80.0872   21.4793  -78.5454 H         1 UNK         0.0807 
    121 H121      -78.7875   21.9643  -79.6254 H         1 UNK         0.0807 
    122 H122      -81.1132   23.5168  -77.4277 H         1 UNK         0.2946 
    123 H123      -82.1820   25.2533  -76.2746 H         1 UNK         0.1144 
    124 H124      -81.1708   23.9616  -73.6693 H         1 UNK         0.0793 
    125 H125      -82.0263   23.1180  -74.9533 H         1 UNK         0.0793 
    126 H126      -82.8508   24.3597  -74.0297 H         1 UNK         0.0793 
    127 H127      -81.4551   26.4232  -73.7964 H         1 UNK         0.2896 
@<TRIPOS>BOND
     1    1    2 1    
     2    1   67 1    
     3    1   68 1    
     4    1   69 1    
     5    2    3 2    
     6    2    4 am   BACKBONE|DICT|INTERRES
     7    4    5 1    
     8    4   70 1    
     9    5    6 1    
    10    5   65 1    
    11    5   71 1    
    12    6    7 1    
    13    6   72 1    
    14    6   73 1    
    15    7    8 1    
    16    8    9 1    
    17    8   74 1    
    18    8   75 1    
    19    9   10 ar   
    20    9   14 ar   
    21   10   11 ar   
    22   10   76 1    
    23   11   12 ar   
    24   11   48 1    
    25   12   13 ar   
    26   12   77 1    
    27   13   14 ar   
    28   13   15 1    
    29   14   78 1    
    30   15   16 1    
    31   15   79 1    
    32   15   80 1    
    33   16   17 1    
    34   17   18 1    
    35   17   81 1    
    36   17   82 1    
    37   18   19 1    
    38   18   22 1    
    39   18   83 1    
    40   19   20 am   BACKBONE|DICT|INTERRES
    41   19   21 2    
    42   20   84 1    
    43   20   85 1    
    44   22   23 am   BACKBONE|DICT|INTERRES
    45   22   86 1    
    46   23   24 2    
    47   23   25 1    
    48   25   26 1    
    49   25   27 1    
    50   25   87 1    
    51   26   88 1    
    52   26   89 1    
    53   26   90 1    
    54   27   28 am   BACKBONE|DICT|INTERRES
    55   27   91 1    
    56   28   29 2    
    57   28   30 1    
    58   30   31 1    
    59   30   32 1    
    60   30   92 1    
    61   31   93 1    
    62   31   94 1    
    63   31   95 1    
    64   32   33 am   BACKBONE|DICT|INTERRES
    65   32   96 1    
    66   33   34 2    
    67   33   35 1    
    68   35   36 1    
    69   35   37 1    
    70   35   97 1    
    71   36   98 1    
    72   36   99 1    
    73   36  100 1    
    74   37   38 am   BACKBONE|DICT|INTERRES
    75   37  101 1    
    76   38   39 2    
    77   38   40 1    
    78   40   41 1    
    79   40   42 1    
    80   40  102 1    
    81   41  103 1    
    82   41  104 1    
    83   41  105 1    
    84   42   43 am   BACKBONE|DICT|INTERRES
    85   42  106 1    
    86   43   44 2    
    87   43   45 1    
    88   45   46 1    
    89   45   49 1    
    90   45  107 1    
    91   46   47 1    
    92   46  108 1    
    93   46  109 1    
    94   47   48 1    
    95   48  110 1    
    96   48  111 1    
    97   49   50 am   BACKBONE|DICT|INTERRES
    98   49  112 1    
    99   50   51 2    
   100   50   52 1    
   101   52   53 1    
   102   52   54 1    
   103   52  113 1    
   104   53  114 1    
   105   53  115 1    
   106   53  116 1    
   107   54   55 am   BACKBONE|DICT|INTERRES
   108   54  117 1    
   109   55   56 2    
   110   55   57 1    
   111   57   58 1    
   112   57   59 1    
   113   57  118 1    
   114   58  119 1    
   115   58  120 1    
   116   58  121 1    
   117   59   60 am   BACKBONE|DICT|INTERRES
   118   59  122 1    
   119   60   61 2    
   120   60   62 1    
   121   62   63 1    
   122   62   64 1    
   123   62  123 1    
   124   63  124 1    
   125   63  125 1    
   126   63  126 1    
   127   64   65 am   BACKBONE|DICT|INTERRES
   128   64  127 1    
   129   65   66 2    
@<TRIPOS>SUBSTRUCTURE
     1 UNK         1 GROUP             0       ****    0 ROOT    
