@<TRIPOS>MOLECULE
3R135
127   129    1
SMALL
USER_CHARGES


@<TRIPOS>ATOM
      1 CA        -83.8277   25.6694  -75.3552 C.3       0 UNK        -0.1998 
      2 C         -82.9091   26.8291  -75.0040 C.2       0 UNK         0.4909 
      3 O         -82.4714   27.5561  -75.8959 O.2       0 UNK        -0.5240 
      4 N         -82.6087   27.0167  -73.7128 N.am      1 UNK        -0.4739 
      5 CA        -81.7097   28.0652  -73.2222 C.3       1 UNK         0.0864 
      6 C6        -81.8506   28.3039  -71.6985 C.3       11 UNK        -0.0881 
      7 S7        -81.6692   26.8118  -70.6588 S.3       11 UNK        -0.2682 
      8 C8        -80.5339   27.4017  -69.3633 C.3       11 UNK         0.0289 
      9 C9        -79.0889   27.4072  -69.8378 C.ar      11 UNK        -0.0687 
     10 C10       -78.3391   26.2307  -69.7889 C.ar      11 UNK        -0.0823 
     11 C11       -77.0092   26.2205  -70.2137 C.ar      11 UNK        -0.0830 
     12 C12       -76.4268   27.3991  -70.6889 C.ar      11 UNK        -0.1021 
     13 C13       -77.1677   28.5879  -70.7536 C.ar      11 UNK        -0.0753 
     14 C14       -78.4961   28.5801  -70.3146 C.ar      11 UNK        -0.0933 
     15 C15       -76.5984   29.9035  -71.2885 C.3       11 UNK         0.0166 
     16 S16       -74.9436   29.8056  -72.0563 S.3       11 UNK        -0.2615 
     17 C17       -74.8894   31.4107  -72.9295 C.3       11 UNK        -0.0865 
     18 CA        -73.8479   31.4718  -74.0813 C.3       10 UNK         0.0862 
     19 C         -72.4202   31.8388  -73.5751 C.2       10 UNK         0.5551 
     20 N         -71.3681   31.1044  -73.9148 N.am      10 UNK        -0.7319 
     21 O         -72.2589   32.8322  -72.8702 O.2       10 UNK        -0.5018 
     22 N         -73.9176   30.2755  -74.9346 N.am      10 UNK        -0.4509 
     23 C         -73.6139   30.2211  -76.2355 C.2       10 UNK         0.4899 
     24 O         -73.3376   31.2106  -76.9156 O.2       10 UNK        -0.4839 
     25 CA        -73.6012   28.8118  -76.8664 C.3       9 UNK         0.0222 
     26 CB        -72.9145   28.7862  -78.2476 C.3       9 UNK        -0.1966 
     27 N         -73.0219   27.7833  -75.9879 N.am      9 UNK        -0.4218 
     28 C         -71.8051   27.8000  -75.4165 C.2       9 UNK         0.5020 
     29 O         -70.9951   28.7186  -75.5412 O.2       9 UNK        -0.5274 
     30 CA        -71.4296   26.5918  -74.5496 C.3       8 UNK         0.0270 
     31 CB        -72.1581   26.6462  -73.1943 C.3       8 UNK        -0.1976 
     32 N         -71.7464   25.3442  -75.2439 N.am      8 UNK        -0.4313 
     33 C         -70.8986   24.6822  -76.0449 C.2       8 UNK         0.5041 
     34 O         -69.7199   25.0009  -76.2075 O.2       8 UNK        -0.5577 
     35 CA        -71.4467   23.4523  -76.7953 C.3       7 UNK         0.0284 
     36 CB        -71.1488   22.1661  -76.0077 C.3       7 UNK        -0.1958 
     37 N         -72.8848   23.5340  -77.0590 N.am      7 UNK        -0.4454 
     38 C         -73.4541   24.3768  -77.9324 C.2       7 UNK         0.5089 
     39 O         -72.8171   25.0893  -78.7072 O.2       7 UNK        -0.5125 
     40 CA        -74.9931   24.4605  -77.9239 C.3       6 UNK         0.0408 
     41 CB        -75.5799   23.6420  -79.0841 C.3       6 UNK        -0.1791 
     42 N         -75.6237   24.0357  -76.6667 N.am      6 UNK        -0.4762 
     43 C         -75.4235   24.5963  -75.4645 C.2       6 UNK         0.5007 
     44 O         -74.6170   25.5088  -75.2740 O.2       6 UNK        -0.5032 
     45 CA        -76.2453   24.0284  -74.2899 C.3       5 UNK         0.0783 
     46 C46       -75.8851   24.6941  -72.9406 C.3       11 UNK        -0.0857 
     47 S47       -76.6470   23.8202  -71.5353 S.3       11 UNK        -0.2512 
     48 C48       -76.2079   24.9292  -70.1623 C.3       11 UNK         0.0225 
     49 N         -77.6741   24.1435  -74.5905 N.am      5 UNK        -0.4615 
     50 C         -78.3880   23.2390  -75.2707 C.2       4 UNK         0.5053 
     51 O         -77.9308   22.1694  -75.6739 O.2       4 UNK        -0.5105 
     52 CA        -79.8269   23.6354  -75.6245 C.3       4 UNK         0.0263 
     53 CB        -80.7483   23.5262  -74.3981 C.3       4 UNK        -0.1981 
     54 N         -79.8567   24.9910  -76.1829 N.am      4 UNK        -0.4224 
     55 C         -79.4616   25.2814  -77.4345 C.2       3 UNK         0.4895 
     56 O         -79.1691   24.4230  -78.2672 O.2       3 UNK        -0.5091 
     57 CA        -79.3616   26.7609  -77.8464 C.3       3 UNK         0.0250 
     58 CB        -80.5451   27.1577  -78.7437 C.3       3 UNK        -0.1996 
     59 N         -79.2818   27.6718  -76.7030 N.am      3 UNK        -0.4254 
     60 C         -78.1566   27.9132  -76.0118 C.2       2 UNK         0.5004 
     61 O         -77.0610   27.4445  -76.3128 O.2       2 UNK        -0.5226 
     62 CA        -78.2608   28.8241  -74.7721 C.3       2 UNK         0.0269 
     63 CB        -77.8311   30.2531  -75.1401 C.3       2 UNK        -0.1926 
     64 N         -79.5982   28.8724  -74.1696 N.am      2 UNK        -0.4687 
     65 C         -80.2562   27.8129  -73.6789 C.2       1 UNK         0.5165 
     66 O         -79.7819   26.6743  -73.6536 O.2       1 UNK        -0.5079 
     67 H67       -84.7651   26.0461  -75.7631 H         1 UNK         0.0900 
     68 H68       -83.3598   25.0357  -76.1082 H         1 UNK         0.0900 
     69 H69       -84.0571   25.0540  -74.4856 H         1 UNK         0.0900 
     70 H70       -82.9512   26.3770  -73.0098 H         1 UNK         0.2959 
     71 H71       -82.0350   28.9901  -73.7050 H         1 UNK         0.1079 
     72 H72       -82.8417   28.7129  -71.4955 H         1 UNK         0.0837 
     73 H73       -81.1549   29.0785  -71.3751 H         1 UNK         0.0837 
     74 H74       -80.6273   26.7481  -68.4948 H         1 UNK         0.0685 
     75 H75       -80.8369   28.3943  -69.0263 H         1 UNK         0.0685 
     76 H76       -78.7945   25.3182  -69.4288 H         1 UNK         0.1434 
     77 H77       -75.3974   27.3728  -71.0151 H         1 UNK         0.1329 
     78 H78       -79.0725   29.4941  -70.3492 H         1 UNK         0.1335 
     79 H79       -76.5585   30.6281  -70.4741 H         1 UNK         0.0680 
     80 H80       -77.3011   30.2987  -72.0224 H         1 UNK         0.0680 
     81 H81       -74.7323   32.2082  -72.2006 H         1 UNK         0.1032 
     82 H82       -75.8742   31.6065  -73.3513 H         1 UNK         0.1032 
     83 H83       -74.1355   32.3224  -74.7023 H         1 UNK         0.0461 
     84 H84       -71.4533   30.3003  -74.5280 H         1 UNK         0.3453 
     85 H85       -70.4584   31.3741  -73.5773 H         1 UNK         0.3453 
     86 H86       -74.1179   29.4144  -74.4467 H         1 UNK         0.2984 
     87 H87       -74.6456   28.5338  -77.0123 H         1 UNK         0.0554 
     88 H88       -73.4055   29.4675  -78.9435 H         1 UNK         0.0847 
     89 H89       -72.9534   27.7918  -78.6909 H         1 UNK         0.0847 
     90 H90       -71.8673   29.0836  -78.1832 H         1 UNK         0.0847 
     91 H91       -73.6325   26.9943  -75.7805 H         1 UNK         0.3141 
     92 H92       -70.3564   26.6378  -74.3514 H         1 UNK         0.0743 
     93 H93       -71.8864   25.7988  -72.5649 H         1 UNK         0.0784 
     94 H94       -71.8925   27.5530  -72.6489 H         1 UNK         0.0784 
     95 H95       -73.2425   26.6455  -73.3058 H         1 UNK         0.0784 
     96 H96       -72.7195   25.0585  -75.2206 H         1 UNK         0.3213 
     97 H97       -70.9276   23.3946  -77.7547 H         1 UNK         0.0855 
     98 H98       -71.6499   22.1582  -75.0389 H         1 UNK         0.0814 
     99 H99       -70.0787   22.0637  -75.8209 H         1 UNK         0.0814 
    100 H100      -71.4651   21.2801  -76.5585 H         1 UNK         0.0814 
    101 H101      -73.4912   22.9636  -76.4884 H         1 UNK         0.3105 
    102 H102      -75.2580   25.5089  -78.0778 H         1 UNK         0.0547 
    103 H103      -75.3797   22.5761  -78.9685 H         1 UNK         0.0837 
    104 H104      -75.1515   23.9530  -80.0380 H         1 UNK         0.0837 
    105 H105      -76.6589   23.7754  -79.1588 H         1 UNK         0.0837 
    106 H106      -76.3106   23.2935  -76.7305 H         1 UNK         0.3020 
    107 H107      -75.9769   22.9720  -74.2121 H         1 UNK         0.1245 
    108 H108      -76.1988   25.7393  -72.9398 H         1 UNK         0.0781 
    109 H109      -74.8054   24.6905  -72.7790 H         1 UNK         0.0781 
    110 H110      -75.1360   25.1324  -70.1824 H         1 UNK         0.0836 
    111 H111      -76.4030   24.4180  -69.2184 H         1 UNK         0.0836 
    112 H112      -78.1248   25.0019  -74.3018 H         1 UNK         0.3022 
    113 H113      -80.1943   22.9364  -76.3792 H         1 UNK         0.0747 
    114 H114      -81.7792   23.7644  -74.6533 H         1 UNK         0.0793 
    115 H115      -80.7433   22.5097  -74.0026 H         1 UNK         0.0793 
    116 H116      -80.4403   24.1862  -73.5872 H         1 UNK         0.0793 
    117 H117      -80.0384   25.7474  -75.5333 H         1 UNK         0.3047 
    118 H118      -78.4485   26.8681  -78.4367 H         1 UNK         0.0822 
    119 H119      -80.4762   28.1996  -79.0568 H         1 UNK         0.0807 
    120 H120      -81.5023   27.0190  -78.2417 H         1 UNK         0.0807 
    121 H121      -80.5657   26.5492  -79.6488 H         1 UNK         0.0807 
    122 H122      -80.1514   28.0818  -76.3872 H         1 UNK         0.2946 
    123 H123      -77.5719   28.4312  -74.0200 H         1 UNK         0.1144 
    124 H124      -77.9066   30.9268  -74.2879 H         1 UNK         0.0793 
    125 H125      -78.4460   30.6645  -75.9417 H         1 UNK         0.0793 
    126 H126      -76.7959   30.2720  -75.4828 H         1 UNK         0.0793 
    127 H127      -80.0579   29.7718  -74.1777 H         1 UNK         0.2896 
@<TRIPOS>BOND
     1    1    2 1    
     2    1   67 1    
     3    1   68 1    
     4    1   69 1    
     5    2    3 2    
     6    2    4 am   BACKBONE|DICT|INTERRES
     7    4    5 1    
     8    4   70 1    
     9    5    6 1    
    10    5   65 1    
    11    5   71 1    
    12    6    7 1    
    13    6   72 1    
    14    6   73 1    
    15    7    8 1    
    16    8    9 1    
    17    8   74 1    
    18    8   75 1    
    19    9   10 ar   
    20    9   14 ar   
    21   10   11 ar   
    22   10   76 1    
    23   11   12 ar   
    24   11   48 1    
    25   12   13 ar   
    26   12   77 1    
    27   13   14 ar   
    28   13   15 1    
    29   14   78 1    
    30   15   16 1    
    31   15   79 1    
    32   15   80 1    
    33   16   17 1    
    34   17   18 1    
    35   17   81 1    
    36   17   82 1    
    37   18   19 1    
    38   18   22 1    
    39   18   83 1    
    40   19   20 am   BACKBONE|DICT|INTERRES
    41   19   21 2    
    42   20   84 1    
    43   20   85 1    
    44   22   23 am   BACKBONE|DICT|INTERRES
    45   22   86 1    
    46   23   24 2    
    47   23   25 1    
    48   25   26 1    
    49   25   27 1    
    50   25   87 1    
    51   26   88 1    
    52   26   89 1    
    53   26   90 1    
    54   27   28 am   BACKBONE|DICT|INTERRES
    55   27   91 1    
    56   28   29 2    
    57   28   30 1    
    58   30   31 1    
    59   30   32 1    
    60   30   92 1    
    61   31   93 1    
    62   31   94 1    
    63   31   95 1    
    64   32   33 am   BACKBONE|DICT|INTERRES
    65   32   96 1    
    66   33   34 2    
    67   33   35 1    
    68   35   36 1    
    69   35   37 1    
    70   35   97 1    
    71   36   98 1    
    72   36   99 1    
    73   36  100 1    
    74   37   38 am   BACKBONE|DICT|INTERRES
    75   37  101 1    
    76   38   39 2    
    77   38   40 1    
    78   40   41 1    
    79   40   42 1    
    80   40  102 1    
    81   41  103 1    
    82   41  104 1    
    83   41  105 1    
    84   42   43 am   BACKBONE|DICT|INTERRES
    85   42  106 1    
    86   43   44 2    
    87   43   45 1    
    88   45   46 1    
    89   45   49 1    
    90   45  107 1    
    91   46   47 1    
    92   46  108 1    
    93   46  109 1    
    94   47   48 1    
    95   48  110 1    
    96   48  111 1    
    97   49   50 am   BACKBONE|DICT|INTERRES
    98   49  112 1    
    99   50   51 2    
   100   50   52 1    
   101   52   53 1    
   102   52   54 1    
   103   52  113 1    
   104   53  114 1    
   105   53  115 1    
   106   53  116 1    
   107   54   55 am   BACKBONE|DICT|INTERRES
   108   54  117 1    
   109   55   56 2    
   110   55   57 1    
   111   57   58 1    
   112   57   59 1    
   113   57  118 1    
   114   58  119 1    
   115   58  120 1    
   116   58  121 1    
   117   59   60 am   BACKBONE|DICT|INTERRES
   118   59  122 1    
   119   60   61 2    
   120   60   62 1    
   121   62   63 1    
   122   62   64 1    
   123   62  123 1    
   124   63  124 1    
   125   63  125 1    
   126   63  126 1    
   127   64   65 am   BACKBONE|DICT|INTERRES
   128   64  127 1    
   129   65   66 2    
@<TRIPOS>SUBSTRUCTURE
     1 UNK         1 GROUP             0       ****    0 ROOT    
