@<TRIPOS>MOLECULE
3R135
127   129    1
SMALL
USER_CHARGES


@<TRIPOS>ATOM
      1 CA        -85.4090   30.3482  -74.9975 C.3       0 UNK        -0.1998 
      2 C         -84.3824   29.3478  -75.5074 C.2       0 UNK         0.4909 
      3 O         -84.4588   28.9268  -76.6627 O.2       0 UNK        -0.5240 
      4 N         -83.4178   28.9719  -74.6582 N.am      1 UNK        -0.4739 
      5 CA        -82.3724   27.9868  -74.9619 C.3       1 UNK         0.0864 
      6 C6        -81.2111   28.0533  -73.9364 C.3       11 UNK        -0.0881 
      7 S7        -80.4010   29.6895  -73.9251 S.3       11 UNK        -0.2682 
      8 C8        -80.1658   29.9817  -72.1435 C.3       11 UNK         0.0289 
      9 C9        -78.8593   29.3840  -71.6391 C.ar      11 UNK        -0.0687 
     10 C10       -78.7971   28.0520  -71.2144 C.ar      11 UNK        -0.0823 
     11 C11       -77.6005   27.5194  -70.7204 C.ar      11 UNK        -0.0830 
     12 C12       -76.4632   28.3283  -70.6556 C.ar      11 UNK        -0.1021 
     13 C13       -76.5111   29.6561  -71.0854 C.ar      11 UNK        -0.0753 
     14 C14       -77.7110   30.1795  -71.5744 C.ar      11 UNK        -0.0933 
     15 C15       -75.2640   30.5208  -71.0181 C.3       11 UNK         0.0166 
     16 S16       -74.5383   30.7215  -72.6699 S.3       11 UNK        -0.2615 
     17 C17       -72.7930   31.0811  -72.2600 C.3       11 UNK        -0.0865 
     18 CA        -71.8386   29.8893  -72.5626 C.3       10 UNK         0.0862 
     19 C         -71.8707   28.7960  -71.4593 C.2       10 UNK         0.5551 
     20 N         -72.1790   27.5415  -71.7541 N.am      10 UNK        -0.7319 
     21 O         -71.5750   29.0897  -70.3052 O.2       10 UNK        -0.5018 
     22 N         -71.9906   29.4004  -73.9443 N.am      10 UNK        -0.4509 
     23 C         -71.4998   30.0456  -75.0099 C.2       10 UNK         0.4899 
     24 O         -70.7353   31.0096  -74.9308 O.2       10 UNK        -0.4839 
     25 CA        -71.9825   29.5708  -76.3914 C.3       9 UNK         0.0222 
     26 CB        -71.2246   30.2304  -77.5643 C.3       9 UNK        -0.1966 
     27 N         -72.0053   28.1142  -76.5343 N.am      9 UNK        -0.4218 
     28 C         -70.9631   27.2701  -76.5099 C.2       9 UNK         0.5020 
     29 O         -69.7986   27.6244  -76.3190 O.2       9 UNK        -0.5274 
     30 CA        -71.2514   25.7723  -76.7410 C.3       8 UNK         0.0270 
     31 CB        -70.8919   24.9562  -75.4878 C.3       8 UNK        -0.1976 
     32 N         -72.6395   25.4831  -77.1167 N.am      8 UNK        -0.4313 
     33 C         -73.1972   25.7435  -78.3077 C.2       8 UNK         0.5041 
     34 O         -72.5721   26.1780  -79.2753 O.2       8 UNK        -0.5577 
     35 CA        -74.7204   25.5380  -78.4199 C.3       7 UNK         0.0284 
     36 CB        -75.0501   24.0790  -78.7684 C.3       7 UNK        -0.1958 
     37 N         -75.4398   25.9389  -77.2039 N.am      7 UNK        -0.4454 
     38 C         -75.4833   27.1940  -76.7299 C.2       7 UNK         0.5089 
     39 O         -74.9636   28.1548  -77.2954 O.2       7 UNK        -0.5125 
     40 CA        -76.1650   27.4094  -75.3713 C.3       6 UNK         0.0408 
     41 CB        -77.6779   27.6031  -75.5317 C.3       6 UNK        -0.1791 
     42 N         -75.9089   26.2998  -74.4572 N.am      6 UNK        -0.4762 
     43 C         -74.7415   26.0826  -73.8403 C.2       6 UNK         0.5007 
     44 O         -73.7548   26.8129  -73.9662 O.2       6 UNK        -0.5032 
     45 CA        -74.6483   24.8047  -72.9780 C.3       5 UNK         0.0783 
     46 C46       -75.2750   25.0004  -71.5727 C.3       11 UNK        -0.0857 
     47 S47       -77.1065   24.9199  -71.5557 S.3       11 UNK        -0.2512 
     48 C48       -77.5444   26.0815  -70.2262 C.3       11 UNK         0.0225 
     49 N         -75.2018   23.6258  -73.6519 N.am      5 UNK        -0.4615 
     50 C         -74.7633   23.1050  -74.8032 C.2       4 UNK         0.5053 
     51 O         -73.7810   23.5248  -75.4097 O.2       4 UNK        -0.5105 
     52 CA        -75.5808   21.9475  -75.4059 C.3       4 UNK         0.0263 
     53 CB        -75.0469   20.5999  -74.8959 C.3       4 UNK        -0.1981 
     54 N         -77.0277   22.0199  -75.1653 N.am      4 UNK        -0.4224 
     55 C         -77.8239   23.0636  -75.4416 C.2       3 UNK         0.4895 
     56 O         -77.4129   24.1332  -75.9002 O.2       3 UNK        -0.5091 
     57 CA        -79.3186   22.8723  -75.1169 C.3       3 UNK         0.0250 
     58 CB        -79.5368   22.5365  -73.6293 C.3       3 UNK        -0.1996 
     59 N         -80.1174   24.0561  -75.4360 N.am      3 UNK        -0.4254 
     60 C         -80.4782   24.4480  -76.6650 C.2       2 UNK         0.5004 
     61 O         -80.2367   23.8119  -77.6925 O.2       2 UNK        -0.5226 
     62 CA        -81.2898   25.7513  -76.7249 C.3       2 UNK         0.0269 
     63 CB        -81.7852   26.1019  -78.1413 C.3       2 UNK        -0.1926 
     64 N         -82.4336   25.6310  -75.8160 N.am      2 UNK        -0.4687 
     65 C         -82.9663   26.5577  -75.0081 C.2       1 UNK         0.5165 
     66 O         -83.9066   26.2778  -74.2621 O.2       1 UNK        -0.5079 
     67 H67       -86.4105   29.9220  -75.0589 H         1 UNK         0.0900 
     68 H68       -85.3850   31.2532  -75.6047 H         1 UNK         0.0900 
     69 H69       -85.2231   30.6299  -73.9607 H         1 UNK         0.0900 
     70 H70       -83.4083   29.3417  -73.7188 H         1 UNK         0.2959 
     71 H71       -81.9850   28.2418  -75.9498 H         1 UNK         0.1079 
     72 H72       -80.4481   27.3058  -74.1558 H         1 UNK         0.0837 
     73 H73       -81.5812   27.8154  -72.9374 H         1 UNK         0.0837 
     74 H74       -81.0106   29.5911  -71.5743 H         1 UNK         0.0685 
     75 H75       -80.1670   31.0593  -71.9710 H         1 UNK         0.0685 
     76 H76       -79.6820   27.4323  -71.2600 H         1 UNK         0.1434 
     77 H77       -75.5377   27.9290  -70.2658 H         1 UNK         0.1329 
     78 H78       -77.7480   31.2079  -71.9071 H         1 UNK         0.1335 
     79 H79       -74.5324   30.0719  -70.3443 H         1 UNK         0.0680 
     80 H80       -75.5073   31.5012  -70.6058 H         1 UNK         0.0680 
     81 H81       -72.4904   31.9435  -72.8559 H         1 UNK         0.1032 
     82 H82       -72.7020   31.4099  -71.2229 H         1 UNK         0.1032 
     83 H83       -70.8213   30.2781  -72.4814 H         1 UNK         0.0461 
     84 H84       -72.5184   27.2850  -72.6728 H         1 UNK         0.3453 
     85 H85       -72.1554   26.8560  -71.0173 H         1 UNK         0.3453 
     86 H86       -72.6160   28.6140  -74.0764 H         1 UNK         0.2984 
     87 H87       -73.0225   29.8913  -76.4624 H         1 UNK         0.0554 
     88 H88       -71.6128   29.8942  -78.5254 H         1 UNK         0.0847 
     89 H89       -70.1577   30.0077  -77.5362 H         1 UNK         0.0847 
     90 H90       -71.3293   31.3155  -77.5362 H         1 UNK         0.0847 
     91 H91       -72.9241   27.7211  -76.6987 H         1 UNK         0.3141 
     92 H92       -70.6049   25.4445  -77.5574 H         1 UNK         0.0743 
     93 H93       -69.8512   25.1125  -75.2008 H         1 UNK         0.0784 
     94 H94       -71.5116   25.2357  -74.6351 H         1 UNK         0.0784 
     95 H95       -71.0212   23.8876  -75.6600 H         1 UNK         0.0784 
     96 H96       -73.2078   25.0246  -76.4072 H         1 UNK         0.3213 
     97 H97       -75.0821   26.1706  -79.2335 H         1 UNK         0.0855 
     98 H98       -74.6002   23.3857  -78.0594 H         1 UNK         0.0814 
     99 H99       -74.6635   23.8229  -79.7559 H         1 UNK         0.0814 
    100 H100      -76.1259   23.9012  -78.7828 H         1 UNK         0.0814 
    101 H101      -75.9408   25.2171  -76.6928 H         1 UNK         0.3105 
    102 H102      -75.7549   28.3198  -74.9276 H         1 UNK         0.0547 
    103 H103      -78.1428   27.7934  -74.5650 H         1 UNK         0.0837 
    104 H104      -77.8976   28.4584  -76.1719 H         1 UNK         0.0837 
    105 H105      -78.1547   26.7285  -75.9737 H         1 UNK         0.0837 
    106 H106      -76.6431   25.6114  -74.3560 H         1 UNK         0.3020 
    107 H107      -73.5815   24.6144  -72.8390 H         1 UNK         0.1245 
    108 H108      -74.9297   25.9336  -71.1282 H         1 UNK         0.0781 
    109 H109      -74.9132   24.2146  -70.9079 H         1 UNK         0.0781 
    110 H110      -76.8373   25.9843  -69.4008 H         1 UNK         0.0836 
    111 H111      -78.5167   25.7956  -69.8219 H         1 UNK         0.0836 
    112 H112      -76.0288   23.2308  -73.2289 H         1 UNK         0.3022 
    113 H113      -75.4396   21.9757  -76.4865 H         1 UNK         0.0747 
    114 H114      -75.5330   19.7631  -75.3979 H         1 UNK         0.0793 
    115 H115      -73.9759   20.5080  -75.0834 H         1 UNK         0.0793 
    116 H116      -75.2007   20.4843  -73.8222 H         1 UNK         0.0793 
    117 H117      -77.4530   21.1855  -74.7871 H         1 UNK         0.3047 
    118 H118      -79.6822   22.0381  -75.7209 H         1 UNK         0.0822 
    119 H119      -79.0230   21.6200  -73.3385 H         1 UNK         0.0807 
    120 H120      -80.5943   22.3847  -73.4117 H         1 UNK         0.0807 
    121 H121      -79.1770   23.3336  -72.9789 H         1 UNK         0.0807 
    122 H122      -80.3695   24.6424  -74.6547 H         1 UNK         0.2946 
    123 H123      -80.6036   26.5339  -76.4005 H         1 UNK         0.1144 
    124 H124      -80.9486   26.2038  -78.8343 H         1 UNK         0.0793 
    125 H125      -82.3313   27.0454  -78.1529 H         1 UNK         0.0793 
    126 H126      -82.4467   25.3305  -78.5377 H         1 UNK         0.0793 
    127 H127      -82.8399   24.7056  -75.7854 H         1 UNK         0.2896 
@<TRIPOS>BOND
     1    1    2 1    
     2    1   67 1    
     3    1   68 1    
     4    1   69 1    
     5    2    3 2    
     6    2    4 am   BACKBONE|DICT|INTERRES
     7    4    5 1    
     8    4   70 1    
     9    5    6 1    
    10    5   65 1    
    11    5   71 1    
    12    6    7 1    
    13    6   72 1    
    14    6   73 1    
    15    7    8 1    
    16    8    9 1    
    17    8   74 1    
    18    8   75 1    
    19    9   10 ar   
    20    9   14 ar   
    21   10   11 ar   
    22   10   76 1    
    23   11   12 ar   
    24   11   48 1    
    25   12   13 ar   
    26   12   77 1    
    27   13   14 ar   
    28   13   15 1    
    29   14   78 1    
    30   15   16 1    
    31   15   79 1    
    32   15   80 1    
    33   16   17 1    
    34   17   18 1    
    35   17   81 1    
    36   17   82 1    
    37   18   19 1    
    38   18   22 1    
    39   18   83 1    
    40   19   20 am   BACKBONE|DICT|INTERRES
    41   19   21 2    
    42   20   84 1    
    43   20   85 1    
    44   22   23 am   BACKBONE|DICT|INTERRES
    45   22   86 1    
    46   23   24 2    
    47   23   25 1    
    48   25   26 1    
    49   25   27 1    
    50   25   87 1    
    51   26   88 1    
    52   26   89 1    
    53   26   90 1    
    54   27   28 am   BACKBONE|DICT|INTERRES
    55   27   91 1    
    56   28   29 2    
    57   28   30 1    
    58   30   31 1    
    59   30   32 1    
    60   30   92 1    
    61   31   93 1    
    62   31   94 1    
    63   31   95 1    
    64   32   33 am   BACKBONE|DICT|INTERRES
    65   32   96 1    
    66   33   34 2    
    67   33   35 1    
    68   35   36 1    
    69   35   37 1    
    70   35   97 1    
    71   36   98 1    
    72   36   99 1    
    73   36  100 1    
    74   37   38 am   BACKBONE|DICT|INTERRES
    75   37  101 1    
    76   38   39 2    
    77   38   40 1    
    78   40   41 1    
    79   40   42 1    
    80   40  102 1    
    81   41  103 1    
    82   41  104 1    
    83   41  105 1    
    84   42   43 am   BACKBONE|DICT|INTERRES
    85   42  106 1    
    86   43   44 2    
    87   43   45 1    
    88   45   46 1    
    89   45   49 1    
    90   45  107 1    
    91   46   47 1    
    92   46  108 1    
    93   46  109 1    
    94   47   48 1    
    95   48  110 1    
    96   48  111 1    
    97   49   50 am   BACKBONE|DICT|INTERRES
    98   49  112 1    
    99   50   51 2    
   100   50   52 1    
   101   52   53 1    
   102   52   54 1    
   103   52  113 1    
   104   53  114 1    
   105   53  115 1    
   106   53  116 1    
   107   54   55 am   BACKBONE|DICT|INTERRES
   108   54  117 1    
   109   55   56 2    
   110   55   57 1    
   111   57   58 1    
   112   57   59 1    
   113   57  118 1    
   114   58  119 1    
   115   58  120 1    
   116   58  121 1    
   117   59   60 am   BACKBONE|DICT|INTERRES
   118   59  122 1    
   119   60   61 2    
   120   60   62 1    
   121   62   63 1    
   122   62   64 1    
   123   62  123 1    
   124   63  124 1    
   125   63  125 1    
   126   63  126 1    
   127   64   65 am   BACKBONE|DICT|INTERRES
   128   64  127 1    
   129   65   66 2    
@<TRIPOS>SUBSTRUCTURE
     1 UNK         1 GROUP             0       ****    0 ROOT    
