@<TRIPOS>MOLECULE
3R135
127   129    1
SMALL
USER_CHARGES


@<TRIPOS>ATOM
      1 CA        -86.6597   28.4443  -72.6346 C.3       0 UNK        -0.1998 
      2 C         -85.4433   28.0105  -73.4389 C.2       0 UNK         0.4909 
      3 O         -85.5850   27.2703  -74.4135 O.2       0 UNK        -0.5240 
      4 N         -84.2511   28.4743  -73.0455 N.am      1 UNK        -0.4739 
      5 CA        -82.9656   28.1083  -73.6481 C.3       1 UNK         0.0864 
      6 C6        -81.8618   29.1630  -73.3642 C.3       11 UNK        -0.0881 
      7 S7        -81.7305   29.7253  -71.6254 S.3       11 UNK        -0.2682 
      8 C8        -80.4222   28.6513  -70.9316 C.3       11 UNK         0.0289 
      9 C9        -78.9797   28.9541  -71.3498 C.ar      11 UNK        -0.0687 
     10 C10       -78.6495   29.7993  -72.4186 C.ar      11 UNK        -0.0823 
     11 C11       -77.3219   29.9472  -72.8312 C.ar      11 UNK        -0.0830 
     12 C12       -76.3056   29.3232  -72.1072 C.ar      11 UNK        -0.1021 
     13 C13       -76.6098   28.5127  -71.0121 C.ar      11 UNK        -0.0753 
     14 C14       -77.9463   28.3188  -70.6507 C.ar      11 UNK        -0.0933 
     15 C15       -75.4859   27.8449  -70.2360 C.3       11 UNK         0.0166 
     16 S16       -74.6130   26.6384  -71.2788 S.3       11 UNK        -0.2615 
     17 C17       -72.8707   26.9623  -70.8464 C.3       11 UNK        -0.0865 
     18 CA        -72.2717   28.2217  -71.5327 C.3       10 UNK         0.0862 
     19 C         -70.7689   28.3817  -71.1518 C.2       10 UNK         0.5551 
     20 N         -69.8247   28.2834  -72.0817 N.am      10 UNK        -0.7319 
     21 O         -70.4565   28.5996  -69.9839 O.2       10 UNK        -0.5018 
     22 N         -72.5444   28.2509  -72.9778 N.am      10 UNK        -0.4509 
     23 C         -72.4015   29.3226  -73.7694 C.2       10 UNK         0.4899 
     24 O         -72.1358   30.4503  -73.3517 O.2       10 UNK        -0.4839 
     25 CA        -72.5828   29.0858  -75.2823 C.3       9 UNK         0.0222 
     26 CB        -71.8346   30.1210  -76.1477 C.3       9 UNK        -0.1966 
     27 N         -72.2499   27.7138  -75.6933 N.am      9 UNK        -0.4218 
     28 C         -71.0670   27.0937  -75.5606 C.2       9 UNK         0.5020 
     29 O         -70.0538   27.6428  -75.1246 O.2       9 UNK        -0.5274 
     30 CA        -71.0017   25.5975  -75.9038 C.3       8 UNK         0.0270 
     31 CB        -71.0138   24.7646  -74.6089 C.3       8 UNK        -0.1976 
     32 N         -72.1036   25.1443  -76.7622 N.am      8 UNK        -0.4313 
     33 C         -71.9403   24.5164  -77.9342 C.2       8 UNK         0.5041 
     34 O         -70.8446   24.3334  -78.4676 O.2       8 UNK        -0.5577 
     35 CA        -73.1976   23.9602  -78.6241 C.3       7 UNK         0.0284 
     36 CB        -73.5732   22.5885  -78.0406 C.3       7 UNK        -0.1958 
     37 N         -74.3605   24.8496  -78.5780 N.am      7 UNK        -0.4454 
     38 C         -74.4804   25.9599  -79.3207 C.2       7 UNK         0.5089 
     39 O         -73.5817   26.4133  -80.0296 O.2       7 UNK        -0.5125 
     40 CA        -75.8428   26.6695  -79.2908 C.3       6 UNK         0.0408 
     41 CB        -76.8700   25.9167  -80.1524 C.3       6 UNK        -0.1791 
     42 N         -76.3486   26.7996  -77.9263 N.am      6 UNK        -0.4762 
     43 C         -76.0116   27.7954  -77.0944 C.2       6 UNK         0.5007 
     44 O         -75.2947   28.7409  -77.4205 O.2       6 UNK        -0.5032 
     45 CA        -76.5293   27.6968  -75.6430 C.3       5 UNK         0.0783 
     46 C46       -77.9084   28.3819  -75.4796 C.3       11 UNK        -0.0857 
     47 S47       -77.8919   30.2104  -75.5714 S.3       11 UNK        -0.2512 
     48 C48       -76.9781   30.7485  -74.0799 C.3       11 UNK         0.0225 
     49 N         -76.5726   26.3057  -75.1747 N.am      5 UNK        -0.4615 
     50 C         -75.4952   25.5217  -75.0146 C.2       4 UNK         0.5053 
     51 O         -74.3437   25.9121  -75.1984 O.2       4 UNK        -0.5105 
     52 CA        -75.7177   24.0399  -74.6602 C.3       4 UNK         0.0263 
     53 CB        -75.5512   23.8027  -73.1540 C.3       4 UNK        -0.1981 
     54 N         -77.0133   23.5163  -75.0890 N.am      4 UNK        -0.4224 
     55 C         -77.4378   23.4388  -76.3580 C.2       3 UNK         0.4895 
     56 O         -76.7510   23.7572  -77.3300 O.2       3 UNK        -0.5091 
     57 CA        -78.8982   22.9957  -76.5629 C.3       3 UNK         0.0250 
     58 CB        -78.9720   21.4771  -76.7850 C.3       3 UNK        -0.1996 
     59 N         -79.7839   23.3777  -75.4512 N.am      3 UNK        -0.4254 
     60 C         -80.0230   24.6448  -75.0845 C.2       2 UNK         0.5004 
     61 O         -79.5320   25.6230  -75.6544 O.2       2 UNK        -0.5226 
     62 CA        -80.8923   24.8685  -73.8435 C.3       2 UNK         0.0269 
     63 CB        -80.0227   24.8214  -72.5704 C.3       2 UNK        -0.1926 
     64 N         -81.5121   26.1812  -73.9870 N.am      2 UNK        -0.4687 
     65 C         -82.5171   26.6816  -73.2616 C.2       1 UNK         0.5165 
     66 O         -83.0556   26.0783  -72.3292 O.2       1 UNK        -0.5079 
     67 H67       -87.3668   28.9693  -73.2763 H         1 UNK         0.0900 
     68 H68       -87.1615   27.5728  -72.2148 H         1 UNK         0.0900 
     69 H69       -86.3895   29.1081  -71.8135 H         1 UNK         0.0900 
     70 H70       -84.1836   29.0568  -72.2224 H         1 UNK         0.2959 
     71 H71       -83.1149   28.0878  -74.7305 H         1 UNK         0.1079 
     72 H72       -80.8929   28.8144  -73.7232 H         1 UNK         0.0837 
     73 H73       -82.0748   30.0523  -73.9594 H         1 UNK         0.0837 
     74 H74       -80.4881   28.7264  -69.8452 H         1 UNK         0.0685 
     75 H75       -80.6480   27.6132  -71.1766 H         1 UNK         0.0685 
     76 H76       -79.4162   30.3140  -72.9768 H         1 UNK         0.1434 
     77 H77       -75.2730   29.4460  -72.4043 H         1 UNK         0.1329 
     78 H78       -78.1847   27.6672  -69.8210 H         1 UNK         0.1335 
     79 H79       -74.7989   28.6146  -69.8829 H         1 UNK         0.0680 
     80 H80       -75.8654   27.3378  -69.3477 H         1 UNK         0.0680 
     81 H81       -72.7891   27.0407  -69.7603 H         1 UNK         0.1032 
     82 H82       -72.2970   26.0762  -71.1249 H         1 UNK         0.1032 
     83 H83       -72.7755   29.0917  -71.1080 H         1 UNK         0.0461 
     84 H84       -68.8597   28.3920  -71.8137 H         1 UNK         0.3453 
     85 H85       -70.0596   28.1152  -73.0524 H         1 UNK         0.3453 
     86 H86       -72.8004   27.3693  -73.3977 H         1 UNK         0.2984 
     87 H87       -73.6475   29.2135  -75.4692 H         1 UNK         0.0554 
     88 H88       -71.9982   29.9387  -77.2098 H         1 UNK         0.0847 
     89 H89       -70.7600   30.1040  -75.9641 H         1 UNK         0.0847 
     90 H90       -72.1838   31.1327  -75.9379 H         1 UNK         0.0847 
     91 H91       -73.0472   27.1398  -75.9452 H         1 UNK         0.3141 
     92 H92       -70.0410   25.4393  -76.3979 H         1 UNK         0.0743 
     93 H93       -71.9508   24.8794  -74.0620 H         1 UNK         0.0784 
     94 H94       -70.8791   23.7039  -74.8212 H         1 UNK         0.0784 
     95 H95       -70.2059   25.0649  -73.9399 H         1 UNK         0.0784 
     96 H96       -73.0408   25.2557  -76.3849 H         1 UNK         0.3213 
     97 H97       -72.9447   23.8070  -79.6760 H         1 UNK         0.0855 
     98 H98       -73.8253   22.6510  -76.9832 H         1 UNK         0.0814 
     99 H99       -72.7440   21.8860  -78.1346 H         1 UNK         0.0814 
    100 H100      -74.4261   22.1541  -78.5627 H         1 UNK         0.0814 
    101 H101      -75.1733   24.5203  -78.0622 H         1 UNK         0.3105 
    102 H102      -75.7149   27.6638  -79.7245 H         1 UNK         0.0547 
    103 H103      -77.8230   26.4448  -80.1829 H         1 UNK         0.0837 
    104 H104      -76.5196   25.8228  -81.1811 H         1 UNK         0.0837 
    105 H105      -77.0581   24.9091  -79.7802 H         1 UNK         0.0837 
    106 H106      -76.9043   26.0326  -77.5698 H         1 UNK         0.3020 
    107 H107      -75.8120   28.2162  -75.0053 H         1 UNK         0.1245 
    108 H108      -78.3600   28.0883  -74.5318 H         1 UNK         0.0781 
    109 H109      -78.6018   28.0223  -76.2420 H         1 UNK         0.0781 
    110 H110      -77.1922   31.8021  -73.8961 H         1 UNK         0.0836 
    111 H111      -75.9098   30.6888  -74.2942 H         1 UNK         0.0836 
    112 H112      -77.4967   25.9063  -75.0639 H         1 UNK         0.3022 
    113 H113      -74.9464   23.4657  -75.1737 H         1 UNK         0.0747 
    114 H114      -75.6604   22.7481  -72.9011 H         1 UNK         0.0793 
    115 H115      -74.5577   24.1082  -72.8235 H         1 UNK         0.0793 
    116 H116      -76.2812   24.3671  -72.5720 H         1 UNK         0.0793 
    117 H117      -77.6487   23.2285  -74.3599 H         1 UNK         0.3047 
    118 H118      -79.2625   23.4928  -77.4647 H         1 UNK         0.0822 
    119 H119      -78.6425   20.9218  -75.9059 H         1 UNK         0.0807 
    120 H120      -78.3366   21.1741  -77.6187 H         1 UNK         0.0807 
    121 H121      -79.9873   21.1594  -77.0230 H         1 UNK         0.0807 
    122 H122      -80.2169   22.6245  -74.9351 H         1 UNK         0.2946 
    123 H123      -81.6714   24.1041  -73.8014 H         1 UNK         0.1144 
    124 H124      -79.5205   23.8585  -72.4709 H         1 UNK         0.0793 
    125 H125      -79.2521   25.5941  -72.5801 H         1 UNK         0.0793 
    126 H126      -80.6214   24.9615  -71.6705 H         1 UNK         0.0793 
    127 H127      -81.1169   26.7200  -74.7492 H         1 UNK         0.2896 
@<TRIPOS>BOND
     1    1    2 1    
     2    1   67 1    
     3    1   68 1    
     4    1   69 1    
     5    2    3 2    
     6    2    4 am   BACKBONE|DICT|INTERRES
     7    4    5 1    
     8    4   70 1    
     9    5    6 1    
    10    5   65 1    
    11    5   71 1    
    12    6    7 1    
    13    6   72 1    
    14    6   73 1    
    15    7    8 1    
    16    8    9 1    
    17    8   74 1    
    18    8   75 1    
    19    9   10 ar   
    20    9   14 ar   
    21   10   11 ar   
    22   10   76 1    
    23   11   12 ar   
    24   11   48 1    
    25   12   13 ar   
    26   12   77 1    
    27   13   14 ar   
    28   13   15 1    
    29   14   78 1    
    30   15   16 1    
    31   15   79 1    
    32   15   80 1    
    33   16   17 1    
    34   17   18 1    
    35   17   81 1    
    36   17   82 1    
    37   18   19 1    
    38   18   22 1    
    39   18   83 1    
    40   19   20 am   BACKBONE|DICT|INTERRES
    41   19   21 2    
    42   20   84 1    
    43   20   85 1    
    44   22   23 am   BACKBONE|DICT|INTERRES
    45   22   86 1    
    46   23   24 2    
    47   23   25 1    
    48   25   26 1    
    49   25   27 1    
    50   25   87 1    
    51   26   88 1    
    52   26   89 1    
    53   26   90 1    
    54   27   28 am   BACKBONE|DICT|INTERRES
    55   27   91 1    
    56   28   29 2    
    57   28   30 1    
    58   30   31 1    
    59   30   32 1    
    60   30   92 1    
    61   31   93 1    
    62   31   94 1    
    63   31   95 1    
    64   32   33 am   BACKBONE|DICT|INTERRES
    65   32   96 1    
    66   33   34 2    
    67   33   35 1    
    68   35   36 1    
    69   35   37 1    
    70   35   97 1    
    71   36   98 1    
    72   36   99 1    
    73   36  100 1    
    74   37   38 am   BACKBONE|DICT|INTERRES
    75   37  101 1    
    76   38   39 2    
    77   38   40 1    
    78   40   41 1    
    79   40   42 1    
    80   40  102 1    
    81   41  103 1    
    82   41  104 1    
    83   41  105 1    
    84   42   43 am   BACKBONE|DICT|INTERRES
    85   42  106 1    
    86   43   44 2    
    87   43   45 1    
    88   45   46 1    
    89   45   49 1    
    90   45  107 1    
    91   46   47 1    
    92   46  108 1    
    93   46  109 1    
    94   47   48 1    
    95   48  110 1    
    96   48  111 1    
    97   49   50 am   BACKBONE|DICT|INTERRES
    98   49  112 1    
    99   50   51 2    
   100   50   52 1    
   101   52   53 1    
   102   52   54 1    
   103   52  113 1    
   104   53  114 1    
   105   53  115 1    
   106   53  116 1    
   107   54   55 am   BACKBONE|DICT|INTERRES
   108   54  117 1    
   109   55   56 2    
   110   55   57 1    
   111   57   58 1    
   112   57   59 1    
   113   57  118 1    
   114   58  119 1    
   115   58  120 1    
   116   58  121 1    
   117   59   60 am   BACKBONE|DICT|INTERRES
   118   59  122 1    
   119   60   61 2    
   120   60   62 1    
   121   62   63 1    
   122   62   64 1    
   123   62  123 1    
   124   63  124 1    
   125   63  125 1    
   126   63  126 1    
   127   64   65 am   BACKBONE|DICT|INTERRES
   128   64  127 1    
   129   65   66 2    
@<TRIPOS>SUBSTRUCTURE
     1 UNK         1 GROUP             0       ****    0 ROOT    
