@<TRIPOS>MOLECULE
3R135
127   129    1
SMALL
USER_CHARGES


@<TRIPOS>ATOM
      1 CA        -81.8810   23.2399  -70.2853 C.3       0 UNK        -0.1998 
      2 C         -80.4561   23.3710  -70.8150 C.2       0 UNK         0.4909 
      3 O         -79.6454   22.4722  -70.6002 O.2       0 UNK        -0.5240 
      4 N         -80.1000   24.4591  -71.5064 N.am      1 UNK        -0.4739 
      5 CA        -80.9437   25.5908  -71.8844 C.3       1 UNK         0.0864 
      6 C6        -80.8588   26.7209  -70.8310 C.3       11 UNK        -0.0881 
      7 S7        -82.0090   28.1005  -71.1550 S.3       11 UNK        -0.2682 
      8 C8        -81.0949   29.5135  -70.4551 C.3       11 UNK         0.0289 
      9 C9        -79.8201   29.8236  -71.2288 C.ar      11 UNK        -0.0687 
     10 C10       -79.8906   30.4332  -72.4854 C.ar      11 UNK        -0.0823 
     11 C11       -78.7259   30.7253  -73.2033 C.ar      11 UNK        -0.0830 
     12 C12       -77.4828   30.4190  -72.6393 C.ar      11 UNK        -0.1021 
     13 C13       -77.4001   29.7879  -71.3963 C.ar      11 UNK        -0.0753 
     14 C14       -78.5704   29.5025  -70.6889 C.ar      11 UNK        -0.0933 
     15 C15       -76.0422   29.3907  -70.8445 C.3       11 UNK         0.0166 
     16 S16       -75.4323   27.9054  -71.6967 S.3       11 UNK        -0.2615 
     17 C17       -73.7043   27.8419  -71.1169 C.3       11 UNK        -0.0865 
     18 CA        -72.7625   28.8320  -71.8559 C.3       10 UNK         0.0862 
     19 C         -71.2985   28.6946  -71.3400 C.2       10 UNK         0.5551 
     20 N         -70.3170   28.3631  -72.1719 N.am      10 UNK        -0.7319 
     21 O         -71.0491   28.8985  -70.1545 O.2       10 UNK        -0.5018 
     22 N         -72.9073   28.7482  -73.3170 N.am      10 UNK        -0.4509 
     23 C         -72.5358   29.7008  -74.1816 C.2       10 UNK         0.4899 
     24 O         -72.1097   30.8056  -73.8416 O.2       10 UNK        -0.4839 
     25 CA        -72.6533   29.3456  -75.6779 C.3       9 UNK         0.0222 
     26 CB        -71.7461   30.2147  -76.5743 C.3       9 UNK        -0.1966 
     27 N         -72.4430   27.9148  -75.9541 N.am      9 UNK        -0.4218 
     28 C         -71.3492   27.1972  -75.6502 C.2       9 UNK         0.5020 
     29 O         -70.3439   27.6799  -75.1257 O.2       9 UNK        -0.5274 
     30 CA        -71.3752   25.6848  -75.9129 C.3       8 UNK         0.0270 
     31 CB        -71.4301   24.9229  -74.5758 C.3       8 UNK        -0.1976 
     32 N         -72.5055   25.2478  -76.7391 N.am      8 UNK        -0.4313 
     33 C         -72.3803   24.6085  -77.9089 C.2       8 UNK         0.5041 
     34 O         -71.3099   24.4625  -78.5017 O.2       8 UNK        -0.5577 
     35 CA        -73.6463   23.9685  -78.4985 C.3       7 UNK         0.0284 
     36 CB        -73.9777   22.6641  -77.7545 C.3       7 UNK        -0.1958 
     37 N         -74.8183   24.8460  -78.5019 N.am      7 UNK        -0.4454 
     38 C         -75.0002   25.8446  -79.3773 C.2       7 UNK         0.5089 
     39 O         -74.1574   26.1930  -80.2050 O.2       7 UNK        -0.5125 
     40 CA        -76.3633   26.5590  -79.3487 C.3       6 UNK         0.0408 
     41 CB        -77.4505   25.6897  -80.0009 C.3       6 UNK        -0.1791 
     42 N         -76.7834   26.9362  -78.0002 N.am      6 UNK        -0.4762 
     43 C         -76.1830   27.8756  -77.2567 C.2       6 UNK         0.5007 
     44 O         -75.2320   28.5484  -77.6516 O.2       6 UNK        -0.5032 
     45 CA        -76.7049   28.0561  -75.8147 C.3       5 UNK         0.0783 
     46 C46       -78.0006   28.9068  -75.7854 C.3       11 UNK        -0.0857 
     47 S47       -77.6411   30.6962  -75.8102 S.3       11 UNK        -0.2512 
     48 C48       -78.8309   31.3579  -74.5892 C.3       11 UNK         0.0225 
     49 N         -76.8753   26.7669  -75.1372 N.am      5 UNK        -0.4615 
     50 C         -75.9013   25.8668  -74.9420 C.2       4 UNK         0.5053 
     51 O         -74.7202   26.0601  -75.2297 O.2       4 UNK        -0.5105 
     52 CA        -76.3215   24.4950  -74.3946 C.3       4 UNK         0.0263 
     53 CB        -76.3394   24.4972  -72.8583 C.3       4 UNK        -0.1981 
     54 N         -77.6262   24.0795  -74.9163 N.am      4 UNK        -0.4224 
     55 C         -77.8430   23.6948  -76.1827 C.2       3 UNK         0.4895 
     56 O         -76.9549   23.5966  -77.0279 O.2       3 UNK        -0.5091 
     57 CA        -79.3011   23.4204  -76.5892 C.3       3 UNK         0.0250 
     58 CB        -79.7332   22.0137  -76.1459 C.3       3 UNK        -0.1996 
     59 N         -80.2337   24.4152  -76.0535 N.am      3 UNK        -0.4254 
     60 C         -80.2261   25.7151  -76.3835 C.2       2 UNK         0.5004 
     61 O         -79.4818   26.1966  -77.2365 O.2       2 UNK        -0.5226 
     62 CA        -81.1691   26.6456  -75.5973 C.3       2 UNK         0.0269 
     63 CB        -82.5088   26.7969  -76.3342 C.3       2 UNK        -0.1926 
     64 N         -81.4193   26.2302  -74.2101 N.am      2 UNK        -0.4687 
     65 C         -80.4735   26.0373  -73.2788 C.2       1 UNK         0.5165 
     66 O         -79.2661   26.1585  -73.4987 O.2       1 UNK        -0.5079 
     67 H67       -81.9479   22.4186  -69.5720 H         1 UNK         0.0900 
     68 H68       -82.5742   23.0319  -71.0997 H         1 UNK         0.0900 
     69 H69       -82.2011   24.1460  -69.7723 H         1 UNK         0.0900 
     70 H70       -79.1542   24.5314  -71.8565 H         1 UNK         0.2959 
     71 H71       -81.9817   25.2649  -71.9719 H         1 UNK         0.1079 
     72 H72       -81.0925   26.3292  -69.8403 H         1 UNK         0.0837 
     73 H73       -79.8339   27.0868  -70.7673 H         1 UNK         0.0837 
     74 H74       -81.7430   30.3910  -70.4658 H         1 UNK         0.0685 
     75 H75       -80.8730   29.3123  -69.4058 H         1 UNK         0.0685 
     76 H76       -80.8587   30.6686  -72.9063 H         1 UNK         0.1434 
     77 H77       -76.5735   30.6355  -73.1828 H         1 UNK         0.1329 
     78 H78       -78.5085   29.0160  -69.7251 H         1 UNK         0.1335 
     79 H79       -75.3417   30.2149  -70.9834 H         1 UNK         0.0680 
     80 H80       -76.0956   29.1999  -69.7715 H         1 UNK         0.0680 
     81 H81       -73.6893   28.0265  -70.0409 H         1 UNK         0.1032 
     82 H82       -73.3509   26.8177  -71.2502 H         1 UNK         0.1032 
     83 H83       -73.0715   29.8385  -71.5695 H         1 UNK         0.0461 
     84 H84       -69.3786   28.2840  -71.8142 H         1 UNK         0.3453 
     85 H85       -70.4917   28.2062  -73.1582 H         1 UNK         0.3453 
     86 H86       -73.2643   27.8759  -73.6793 H         1 UNK         0.2984 
     87 H87       -73.6845   29.5710  -75.9432 H         1 UNK         0.0554 
     88 H88       -71.8708   29.9600  -77.6267 H         1 UNK         0.0847 
     89 H89       -70.6921   30.0959  -76.3215 H         1 UNK         0.0847 
     90 H90       -71.9883   31.2728  -76.4688 H         1 UNK         0.0847 
     91 H91       -73.2399   27.4242  -76.3393 H         1 UNK         0.3141 
     92 H92       -70.4277   25.4421  -76.3982 H         1 UNK         0.0743 
     93 H93       -70.5935   25.1964  -73.9311 H         1 UNK         0.0784 
     94 H94       -72.3483   25.1356  -74.0266 H         1 UNK         0.0784 
     95 H95       -71.3765   23.8455  -74.7328 H         1 UNK         0.0784 
     96 H96       -73.4281   25.3531  -76.3200 H         1 UNK         0.3213 
     97 H97       -73.4235   23.7045  -79.5350 H         1 UNK         0.0855 
     98 H98       -74.2427   22.8476  -76.7127 H         1 UNK         0.0814 
     99 H99       -73.1258   21.9828  -77.7598 H         1 UNK         0.0814 
    100 H100      -74.8121   22.1421  -78.2234 H         1 UNK         0.0814 
    101 H101      -75.5874   24.5842  -77.8886 H         1 UNK         0.3105 
    102 H102      -76.2711   27.4742  -79.9374 H         1 UNK         0.0547 
    103 H103      -78.3998   26.2223  -80.0599 H         1 UNK         0.0837 
    104 H104      -77.1704   25.4110  -81.0176 H         1 UNK         0.0837 
    105 H105      -77.6217   24.7676  -79.4446 H         1 UNK         0.0837 
    106 H106      -77.6052   26.4688  -77.6247 H         1 UNK         0.3020 
    107 H107      -75.9310   28.5822  -75.2511 H         1 UNK         0.1245 
    108 H108      -78.5677   28.6761  -74.8831 H         1 UNK         0.0781 
    109 H109      -78.6662   28.6700  -76.6171 H         1 UNK         0.0781 
    110 H110      -78.6740   32.4330  -74.4945 H         1 UNK         0.0836 
    111 H111      -79.8368   31.2272  -74.9916 H         1 UNK         0.0836 
    112 H112      -77.8045   26.5462  -74.7945 H         1 UNK         0.3022 
    113 H113      -75.5774   23.7654  -74.7209 H         1 UNK         0.0747 
    114 H114      -76.6290   23.5245  -72.4606 H         1 UNK         0.0793 
    115 H115      -77.0244   25.2449  -72.4582 H         1 UNK         0.0793 
    116 H116      -75.3491   24.7275  -72.4629 H         1 UNK         0.0793 
    117 H117      -78.4221   24.2229  -74.3115 H         1 UNK         0.3047 
    118 H118      -79.3529   23.4664  -77.6793 H         1 UNK         0.0822 
    119 H119      -79.0589   21.2554  -76.5470 H         1 UNK         0.0807 
    120 H120      -80.7348   21.7752  -76.5043 H         1 UNK         0.0807 
    121 H121      -79.7311   21.9100  -75.0600 H         1 UNK         0.0807 
    122 H122      -80.8902   24.1031  -75.3532 H         1 UNK         0.2946 
    123 H123      -80.6925   27.6265  -75.5589 H         1 UNK         0.1144 
    124 H124      -82.3533   27.1282  -77.3622 H         1 UNK         0.0793 
    125 H125      -83.1464   27.5378  -75.8514 H         1 UNK         0.0793 
    126 H126      -83.0572   25.8550  -76.3748 H         1 UNK         0.0793 
    127 H127      -82.3884   26.1177  -73.9478 H         1 UNK         0.2896 
@<TRIPOS>BOND
     1    1    2 1    
     2    1   67 1    
     3    1   68 1    
     4    1   69 1    
     5    2    3 2    
     6    2    4 am   BACKBONE|DICT|INTERRES
     7    4    5 1    
     8    4   70 1    
     9    5    6 1    
    10    5   65 1    
    11    5   71 1    
    12    6    7 1    
    13    6   72 1    
    14    6   73 1    
    15    7    8 1    
    16    8    9 1    
    17    8   74 1    
    18    8   75 1    
    19    9   10 ar   
    20    9   14 ar   
    21   10   11 ar   
    22   10   76 1    
    23   11   12 ar   
    24   11   48 1    
    25   12   13 ar   
    26   12   77 1    
    27   13   14 ar   
    28   13   15 1    
    29   14   78 1    
    30   15   16 1    
    31   15   79 1    
    32   15   80 1    
    33   16   17 1    
    34   17   18 1    
    35   17   81 1    
    36   17   82 1    
    37   18   19 1    
    38   18   22 1    
    39   18   83 1    
    40   19   20 am   BACKBONE|DICT|INTERRES
    41   19   21 2    
    42   20   84 1    
    43   20   85 1    
    44   22   23 am   BACKBONE|DICT|INTERRES
    45   22   86 1    
    46   23   24 2    
    47   23   25 1    
    48   25   26 1    
    49   25   27 1    
    50   25   87 1    
    51   26   88 1    
    52   26   89 1    
    53   26   90 1    
    54   27   28 am   BACKBONE|DICT|INTERRES
    55   27   91 1    
    56   28   29 2    
    57   28   30 1    
    58   30   31 1    
    59   30   32 1    
    60   30   92 1    
    61   31   93 1    
    62   31   94 1    
    63   31   95 1    
    64   32   33 am   BACKBONE|DICT|INTERRES
    65   32   96 1    
    66   33   34 2    
    67   33   35 1    
    68   35   36 1    
    69   35   37 1    
    70   35   97 1    
    71   36   98 1    
    72   36   99 1    
    73   36  100 1    
    74   37   38 am   BACKBONE|DICT|INTERRES
    75   37  101 1    
    76   38   39 2    
    77   38   40 1    
    78   40   41 1    
    79   40   42 1    
    80   40  102 1    
    81   41  103 1    
    82   41  104 1    
    83   41  105 1    
    84   42   43 am   BACKBONE|DICT|INTERRES
    85   42  106 1    
    86   43   44 2    
    87   43   45 1    
    88   45   46 1    
    89   45   49 1    
    90   45  107 1    
    91   46   47 1    
    92   46  108 1    
    93   46  109 1    
    94   47   48 1    
    95   48  110 1    
    96   48  111 1    
    97   49   50 am   BACKBONE|DICT|INTERRES
    98   49  112 1    
    99   50   51 2    
   100   50   52 1    
   101   52   53 1    
   102   52   54 1    
   103   52  113 1    
   104   53  114 1    
   105   53  115 1    
   106   53  116 1    
   107   54   55 am   BACKBONE|DICT|INTERRES
   108   54  117 1    
   109   55   56 2    
   110   55   57 1    
   111   57   58 1    
   112   57   59 1    
   113   57  118 1    
   114   58  119 1    
   115   58  120 1    
   116   58  121 1    
   117   59   60 am   BACKBONE|DICT|INTERRES
   118   59  122 1    
   119   60   61 2    
   120   60   62 1    
   121   62   63 1    
   122   62   64 1    
   123   62  123 1    
   124   63  124 1    
   125   63  125 1    
   126   63  126 1    
   127   64   65 am   BACKBONE|DICT|INTERRES
   128   64  127 1    
   129   65   66 2    
@<TRIPOS>SUBSTRUCTURE
     1 UNK         1 GROUP             0       ****    0 ROOT    
