@<TRIPOS>MOLECULE
3R135
127   129    1
SMALL
USER_CHARGES


@<TRIPOS>ATOM
      1 CA        -79.8121   21.7364  -72.3484 C.3       0 UNK        -0.1998 
      2 C         -80.6101   22.9942  -72.6553 C.2       0 UNK         0.4909 
      3 O         -81.3665   23.0199  -73.6266 O.2       0 UNK        -0.5240 
      4 N         -80.4356   24.0427  -71.8404 N.am      1 UNK        -0.4739 
      5 CA        -81.0796   25.3542  -71.9746 C.3       1 UNK         0.0864 
      6 C6        -80.7270   26.2480  -70.7625 C.3       11 UNK        -0.0881 
      7 S7        -81.7190   27.7768  -70.6816 S.3       11 UNK        -0.2682 
      8 C8        -80.5205   28.9452  -69.9617 C.3       11 UNK         0.0289 
      9 C9        -79.3758   29.2658  -70.9138 C.ar      11 UNK        -0.0687 
     10 C10       -79.6011   30.0733  -72.0322 C.ar      11 UNK        -0.0823 
     11 C11       -78.5561   30.3947  -72.9044 C.ar      11 UNK        -0.0830 
     12 C12       -77.2709   29.9109  -72.6346 C.ar      11 UNK        -0.1021 
     13 C13       -77.0374   29.0814  -71.5349 C.ar      11 UNK        -0.0753 
     14 C14       -78.0911   28.7685  -70.6721 C.ar      11 UNK        -0.0933 
     15 C15       -75.6470   28.5194  -71.2928 C.3       11 UNK         0.0166 
     16 S16       -74.5915   29.7403  -70.4575 S.3       11 UNK        -0.2615 
     17 C17       -72.9665   28.9145  -70.5279 C.3       11 UNK        -0.0865 
     18 CA        -72.0655   29.4988  -71.6461 C.3       10 UNK         0.0862 
     19 C         -70.6176   28.9572  -71.5280 C.2       10 UNK         0.5551 
     20 N         -69.6797   29.7746  -71.0704 N.am      10 UNK        -0.7319 
     21 O         -70.3525   27.7892  -71.8040 O.2       10 UNK        -0.5018 
     22 N         -72.6137   29.2174  -72.9782 N.am      10 UNK        -0.4509 
     23 C         -72.3485   29.9269  -74.0812 C.2       10 UNK         0.4899 
     24 O         -71.6871   30.9667  -74.0874 O.2       10 UNK        -0.4839 
     25 CA        -72.9270   29.3622  -75.3940 C.3       9 UNK         0.0222 
     26 CB        -72.4098   30.0943  -76.6509 C.3       9 UNK        -0.1966 
     27 N         -72.7340   27.9097  -75.5084 N.am      9 UNK        -0.4218 
     28 C         -71.5627   27.2536  -75.5330 C.2       9 UNK         0.5020 
     29 O         -70.4590   27.8001  -75.5413 O.2       9 UNK        -0.5274 
     30 CA        -71.6296   25.7220  -75.5392 C.3       8 UNK         0.0270 
     31 CB        -71.8440   25.1883  -74.1116 C.3       8 UNK        -0.1976 
     32 N         -72.6950   25.2218  -76.4117 N.am      8 UNK        -0.4313 
     33 C         -72.4864   24.6878  -77.6213 C.2       8 UNK         0.5041 
     34 O         -71.3835   24.6328  -78.1683 O.2       8 UNK        -0.5577 
     35 CA        -73.6973   24.0603  -78.3265 C.3       7 UNK         0.0284 
     36 CB        -74.0499   22.7090  -77.6822 C.3       7 UNK        -0.1958 
     37 N         -74.8823   24.9204  -78.3528 N.am      7 UNK        -0.4454 
     38 C         -75.0388   25.9502  -79.1966 C.2       7 UNK         0.5089 
     39 O         -74.1586   26.3520  -79.9585 O.2       7 UNK        -0.5125 
     40 CA        -76.4235   26.6222  -79.2306 C.3       6 UNK         0.0408 
     41 CB        -77.4560   25.7173  -79.9226 C.3       6 UNK        -0.1791 
     42 N         -76.9104   26.9934  -77.9037 N.am      6 UNK        -0.4762 
     43 C         -76.3999   27.9858  -77.1618 C.2       6 UNK         0.5007 
     44 O         -75.4910   28.7239  -77.5393 O.2       6 UNK        -0.5032 
     45 CA        -76.9851   28.1591  -75.7447 C.3       5 UNK         0.0783 
     46 C46       -78.2923   28.9951  -75.7696 C.3       11 UNK        -0.0857 
     47 S47       -77.9388   30.7814  -75.6409 S.3       11 UNK        -0.2512 
     48 C48       -78.8433   31.2650  -74.1270 C.3       11 UNK         0.0225 
     49 N         -77.1584   26.8761  -75.0581 N.am      5 UNK        -0.4615 
     50 C         -76.1764   26.0000  -74.8061 C.2       4 UNK         0.5053 
     51 O         -74.9875   26.2178  -75.0398 O.2       4 UNK        -0.5105 
     52 CA        -76.5949   24.6259  -74.2624 C.3       4 UNK         0.0263 
     53 CB        -76.7205   24.6523  -72.7305 C.3       4 UNK        -0.1981 
     54 N         -77.8464   24.1669  -74.8730 N.am      4 UNK        -0.4224 
     55 C         -77.9525   23.7736  -76.1522 C.2       3 UNK         0.4895 
     56 O         -76.9935   23.6791  -76.9155 O.2       3 UNK        -0.5091 
     57 CA        -79.3623   23.4927  -76.6958 C.3       3 UNK         0.0250 
     58 CB        -79.7589   22.0263  -76.4678 C.3       3 UNK        -0.1996 
     59 N         -80.3681   24.3888  -76.1207 N.am      3 UNK        -0.4254 
     60 C         -80.4483   25.6957  -76.4175 C.2       2 UNK         0.5004 
     61 O         -79.7246   26.2486  -77.2458 O.2       2 UNK        -0.5226 
     62 CA        -81.4636   26.5428  -75.6275 C.3       2 UNK         0.0269 
     63 CB        -82.8130   26.5872  -76.3607 C.3       2 UNK        -0.1926 
     64 N         -81.6700   26.0808  -74.2507 N.am      2 UNK        -0.4687 
     65 C         -80.7053   26.0069  -73.3229 C.2       1 UNK         0.5165 
     66 O         -79.5433   26.3606  -73.5268 O.2       1 UNK        -0.5079 
     67 H67       -79.3760   21.7665  -71.3501 H         1 UNK         0.0900 
     68 H68       -79.0037   21.6169  -73.0689 H         1 UNK         0.0900 
     69 H69       -80.4558   20.8592  -72.4077 H         1 UNK         0.0900 
     70 H70       -79.7876   23.9580  -71.0705 H         1 UNK         0.2959 
     71 H71       -82.1581   25.1820  -71.9616 H         1 UNK         0.1079 
     72 H72       -80.9069   25.7028  -69.8345 H         1 UNK         0.0837 
     73 H73       -79.6622   26.4834  -70.7670 H         1 UNK         0.0837 
     74 H74       -80.1430   28.5392  -69.0218 H         1 UNK         0.0685 
     75 H75       -81.0414   29.8690  -69.7061 H         1 UNK         0.0685 
     76 H76       -80.5979   30.4477  -72.2219 H         1 UNK         0.1434 
     77 H77       -76.4489   30.1677  -73.2874 H         1 UNK         0.1329 
     78 H78       -77.9101   28.1376  -69.8128 H         1 UNK         0.1335 
     79 H79       -75.6998   27.6111  -70.6904 H         1 UNK         0.0680 
     80 H80       -75.2025   28.2326  -72.2467 H         1 UNK         0.0680 
     81 H81       -72.4945   29.0531  -69.5531 H         1 UNK         0.1032 
     82 H82       -73.0933   27.8366  -70.6469 H         1 UNK         0.1032 
     83 H83       -72.0366   30.5827  -71.5126 H         1 UNK         0.0461 
     84 H84       -68.7366   29.4323  -70.9719 H         1 UNK         0.3453 
     85 H85       -69.8922   30.7320  -70.8359 H         1 UNK         0.3453 
     86 H86       -73.1151   28.3487  -73.0759 H         1 UNK         0.2984 
     87 H87       -74.0032   29.5260  -75.3422 H         1 UNK         0.0554 
     88 H88       -72.6754   31.1516  -76.6222 H         1 UNK         0.0847 
     89 H89       -72.8461   29.6768  -77.5584 H         1 UNK         0.0847 
     90 H90       -71.3250   30.0345  -76.7414 H         1 UNK         0.0847 
     91 H91       -73.5825   27.3487  -75.4735 H         1 UNK         0.3141 
     92 H92       -70.6599   25.3539  -75.8813 H         1 UNK         0.0743 
     93 H93       -71.0519   25.5335  -73.4454 H         1 UNK         0.0784 
     94 H94       -72.7916   25.5186  -73.6858 H         1 UNK         0.0784 
     95 H95       -71.8309   24.0985  -74.0918 H         1 UNK         0.0784 
     96 H96       -73.6435   25.2934  -76.0548 H         1 UNK         0.3213 
     97 H97       -73.4045   23.8609  -79.3600 H         1 UNK         0.0855 
     98 H98       -74.3725   22.8243  -76.6467 H         1 UNK         0.0814 
     99 H99       -73.1892   22.0388  -77.6832 H         1 UNK         0.0814 
    100 H100      -74.8509   22.2082  -78.2262 H         1 UNK         0.0814 
    101 H101      -75.6733   24.6228  -77.7838 H         1 UNK         0.3105 
    102 H102      -76.3351   27.5357  -79.8226 H         1 UNK         0.0547 
    103 H103      -77.1297   25.4521  -80.9290 H         1 UNK         0.0837 
    104 H104      -77.6148   24.7875  -79.3759 H         1 UNK         0.0837 
    105 H105      -78.4207   26.2168  -80.0152 H         1 UNK         0.0837 
    106 H106      -77.7083   26.4798  -77.5425 H         1 UNK         0.3020 
    107 H107      -76.2359   28.6958  -75.1614 H         1 UNK         0.1245 
    108 H108      -78.9426   28.7057  -74.9437 H         1 UNK         0.0781 
    109 H109      -78.8805   28.8123  -76.6711 H         1 UNK         0.0781 
    110 H110      -78.5940   32.2990  -73.8857 H         1 UNK         0.0836 
    111 H111      -79.9100   31.2515  -74.3567 H         1 UNK         0.0836 
    112 H112      -78.0965   26.6504  -74.7391 H         1 UNK         0.3022 
    113 H113      -75.8093   23.9132  -74.5227 H         1 UNK         0.0747 
    114 H114      -75.7675   24.9184  -72.2712 H         1 UNK         0.0793 
    115 H115      -77.0064   23.6763  -72.3387 H         1 UNK         0.0793 
    116 H116      -77.4549   25.3811  -72.3881 H         1 UNK         0.0793 
    117 H117      -78.6904   24.3018  -74.3354 H         1 UNK         0.3047 
    118 H118      -79.3371   23.6646  -77.7743 H         1 UNK         0.0822 
    119 H119      -79.0501   21.3538  -76.9529 H         1 UNK         0.0807 
    120 H120      -80.7438   21.8126  -76.8832 H         1 UNK         0.0807 
    121 H121      -79.7785   21.7666  -75.4103 H         1 UNK         0.0807 
    122 H122      -80.9701   24.0056  -75.3980 H         1 UNK         0.2946 
    123 H123      -81.0675   27.5592  -75.5786 H         1 UNK         0.1144 
    124 H124      -82.6893   26.9491  -77.3826 H         1 UNK         0.0793 
    125 H125      -83.5131   27.2592  -75.8639 H         1 UNK         0.0793 
    126 H126      -83.2750   25.6008  -76.4177 H         1 UNK         0.0793 
    127 H127      -82.5911   25.7338  -74.0238 H         1 UNK         0.2896 
@<TRIPOS>BOND
     1    1    2 1    
     2    1   67 1    
     3    1   68 1    
     4    1   69 1    
     5    2    3 2    
     6    2    4 am   BACKBONE|DICT|INTERRES
     7    4    5 1    
     8    4   70 1    
     9    5    6 1    
    10    5   65 1    
    11    5   71 1    
    12    6    7 1    
    13    6   72 1    
    14    6   73 1    
    15    7    8 1    
    16    8    9 1    
    17    8   74 1    
    18    8   75 1    
    19    9   10 ar   
    20    9   14 ar   
    21   10   11 ar   
    22   10   76 1    
    23   11   12 ar   
    24   11   48 1    
    25   12   13 ar   
    26   12   77 1    
    27   13   14 ar   
    28   13   15 1    
    29   14   78 1    
    30   15   16 1    
    31   15   79 1    
    32   15   80 1    
    33   16   17 1    
    34   17   18 1    
    35   17   81 1    
    36   17   82 1    
    37   18   19 1    
    38   18   22 1    
    39   18   83 1    
    40   19   20 am   BACKBONE|DICT|INTERRES
    41   19   21 2    
    42   20   84 1    
    43   20   85 1    
    44   22   23 am   BACKBONE|DICT|INTERRES
    45   22   86 1    
    46   23   24 2    
    47   23   25 1    
    48   25   26 1    
    49   25   27 1    
    50   25   87 1    
    51   26   88 1    
    52   26   89 1    
    53   26   90 1    
    54   27   28 am   BACKBONE|DICT|INTERRES
    55   27   91 1    
    56   28   29 2    
    57   28   30 1    
    58   30   31 1    
    59   30   32 1    
    60   30   92 1    
    61   31   93 1    
    62   31   94 1    
    63   31   95 1    
    64   32   33 am   BACKBONE|DICT|INTERRES
    65   32   96 1    
    66   33   34 2    
    67   33   35 1    
    68   35   36 1    
    69   35   37 1    
    70   35   97 1    
    71   36   98 1    
    72   36   99 1    
    73   36  100 1    
    74   37   38 am   BACKBONE|DICT|INTERRES
    75   37  101 1    
    76   38   39 2    
    77   38   40 1    
    78   40   41 1    
    79   40   42 1    
    80   40  102 1    
    81   41  103 1    
    82   41  104 1    
    83   41  105 1    
    84   42   43 am   BACKBONE|DICT|INTERRES
    85   42  106 1    
    86   43   44 2    
    87   43   45 1    
    88   45   46 1    
    89   45   49 1    
    90   45  107 1    
    91   46   47 1    
    92   46  108 1    
    93   46  109 1    
    94   47   48 1    
    95   48  110 1    
    96   48  111 1    
    97   49   50 am   BACKBONE|DICT|INTERRES
    98   49  112 1    
    99   50   51 2    
   100   50   52 1    
   101   52   53 1    
   102   52   54 1    
   103   52  113 1    
   104   53  114 1    
   105   53  115 1    
   106   53  116 1    
   107   54   55 am   BACKBONE|DICT|INTERRES
   108   54  117 1    
   109   55   56 2    
   110   55   57 1    
   111   57   58 1    
   112   57   59 1    
   113   57  118 1    
   114   58  119 1    
   115   58  120 1    
   116   58  121 1    
   117   59   60 am   BACKBONE|DICT|INTERRES
   118   59  122 1    
   119   60   61 2    
   120   60   62 1    
   121   62   63 1    
   122   62   64 1    
   123   62  123 1    
   124   63  124 1    
   125   63  125 1    
   126   63  126 1    
   127   64   65 am   BACKBONE|DICT|INTERRES
   128   64  127 1    
   129   65   66 2    
@<TRIPOS>SUBSTRUCTURE
     1 UNK         1 GROUP             0       ****    0 ROOT    
