@<TRIPOS>MOLECULE
3R135
127   129    1
SMALL
USER_CHARGES


@<TRIPOS>ATOM
      1 CA        -86.2208   28.0293  -72.4714 C.3       0 UNK        -0.1998 
      2 C         -84.7951   27.5324  -72.6598 C.2       0 UNK         0.4909 
      3 O         -84.4183   26.5262  -72.0581 O.2       0 UNK        -0.5240 
      4 N         -84.0088   28.2346  -73.4877 N.am      1 UNK        -0.4739 
      5 CA        -82.6138   27.9381  -73.8409 C.3       1 UNK         0.0864 
      6 C6        -81.6207   28.0642  -72.6527 C.3       11 UNK        -0.0881 
      7 S7        -81.5938   29.7297  -71.9064 S.3       11 UNK        -0.2682 
      8 C8        -80.1505   30.4934  -72.7314 C.3       11 UNK         0.0289 
      9 C9        -78.7868   29.8421  -72.4758 C.ar      11 UNK        -0.0687 
     10 C10       -78.5803   28.8418  -71.5155 C.ar      11 UNK        -0.0823 
     11 C11       -77.3263   28.2460  -71.3547 C.ar      11 UNK        -0.0830 
     12 C12       -76.2524   28.6928  -72.1308 C.ar      11 UNK        -0.1021 
     13 C13       -76.4325   29.7074  -73.0739 C.ar      11 UNK        -0.0753 
     14 C14       -77.7002   30.2700  -73.2444 C.ar      11 UNK        -0.0933 
     15 C15       -75.2690   30.1883  -73.9261 C.3       11 UNK         0.0166 
     16 S16       -74.3899   31.5733  -73.1374 S.3       11 UNK        -0.2615 
     17 C17       -73.1389   30.6998  -72.1313 C.3       11 UNK        -0.0865 
     18 CA        -71.7368   30.7167  -72.7968 C.3       10 UNK         0.0862 
     19 C         -70.6464   30.1179  -71.8590 C.2       10 UNK         0.5551 
     20 N         -69.8566   29.1363  -72.2810 N.am      10 UNK        -0.7319 
     21 O         -70.5071   30.5626  -70.7223 O.2       10 UNK        -0.5018 
     22 N         -71.7737   30.1061  -74.1334 N.am      10 UNK        -0.4509 
     23 C         -70.9903   30.4443  -75.1626 C.2       10 UNK         0.4899 
     24 O         -70.1675   31.3609  -75.1291 O.2       10 UNK        -0.4839 
     25 CA        -71.1630   29.6008  -76.4418 C.3       9 UNK         0.0222 
     26 CB        -69.9520   29.7034  -77.3931 C.3       9 UNK        -0.1966 
     27 N         -71.4911   28.1930  -76.1730 N.am      9 UNK        -0.4218 
     28 C         -70.7601   27.3110  -75.4673 C.2       9 UNK         0.5020 
     29 O         -69.7105   27.6045  -74.8925 O.2       9 UNK        -0.5274 
     30 CA        -71.2850   25.8669  -75.3435 C.3       8 UNK         0.0270 
     31 CB        -71.6131   25.5330  -73.8779 C.3       8 UNK        -0.1976 
     32 N         -72.4575   25.6042  -76.1838 N.am      8 UNK        -0.4313 
     33 C         -72.4002   25.4010  -77.5092 C.2       8 UNK         0.5041 
     34 O         -71.3418   25.3298  -78.1353 O.2       8 UNK        -0.5577 
     35 CA        -73.7248   25.2793  -78.2876 C.3       7 UNK         0.0284 
     36 CB        -73.9733   23.8148  -78.6848 C.3       7 UNK        -0.1958 
     37 N         -74.9056   25.7973  -77.5888 N.am      7 UNK        -0.4454 
     38 C         -75.0924   27.0658  -77.1957 C.2       7 UNK         0.5089 
     39 O         -74.2767   27.9691  -77.3863 O.2       7 UNK        -0.5125 
     40 CA        -76.3660   27.3507  -76.3766 C.3       6 UNK         0.0408 
     41 CB        -77.5786   27.5564  -77.2953 C.3       6 UNK        -0.1791 
     42 N         -76.6599   26.3031  -75.3919 N.am      6 UNK        -0.4762 
     43 C         -75.8243   25.9310  -74.4085 C.2       6 UNK         0.5007 
     44 O         -74.7260   26.4534  -74.2199 O.2       6 UNK        -0.5032 
     45 CA        -76.2456   24.7288  -73.5448 C.3       5 UNK         0.0783 
     46 C46       -77.1758   25.1278  -72.3709 C.3       11 UNK        -0.0857 
     47 S47       -76.2021   25.6978  -70.9337 S.3       11 UNK        -0.2512 
     48 C48       -77.1520   27.1326  -70.3264 C.3       11 UNK         0.0225 
     49 N         -76.8185   23.6749  -74.3851 N.am      5 UNK        -0.4615 
     50 C         -76.0798   22.7968  -75.0795 C.2       4 UNK         0.5053 
     51 O         -74.8511   22.7454  -75.0268 O.2       4 UNK        -0.5105 
     52 CA        -76.8263   21.8129  -75.9977 C.3       4 UNK         0.0263 
     53 CB        -77.1620   20.5198  -75.2378 C.3       4 UNK        -0.1981 
     54 N         -78.0519   22.3678  -76.5757 N.am      4 UNK        -0.4224 
     55 C         -78.0911   23.3916  -77.4401 C.2       3 UNK         0.4895 
     56 O         -77.0930   23.9685  -77.8669 O.2       3 UNK        -0.5091 
     57 CA        -79.4834   23.8913  -77.8579 C.3       3 UNK         0.0250 
     58 CB        -79.9997   23.0979  -79.0686 C.3       3 UNK        -0.1996 
     59 N         -80.4750   23.8452  -76.7777 N.am      3 UNK        -0.4254 
     60 C         -80.3616   24.4882  -75.6075 C.2       2 UNK         0.5004 
     61 O         -79.3749   25.1528  -75.2757 O.2       2 UNK        -0.5226 
     62 CA        -81.5189   24.3152  -74.6151 C.3       2 UNK         0.0269 
     63 CB        -81.1359   23.3017  -73.5242 C.3       2 UNK        -0.1926 
     64 N         -81.8409   25.5950  -73.9889 N.am      2 UNK        -0.4687 
     65 C         -82.5096   26.5900  -74.5890 C.2       1 UNK         0.5165 
     66 O         -83.0304   26.4824  -75.7014 O.2       1 UNK        -0.5079 
     67 H67       -86.9296   27.2608  -72.7788 H         1 UNK         0.0900 
     68 H68       -86.4209   28.9280  -73.0545 H         1 UNK         0.0900 
     69 H69       -86.4014   28.2596  -71.4217 H         1 UNK         0.0900 
     70 H70       -84.3995   29.0387  -73.9588 H         1 UNK         0.2959 
     71 H71       -82.3262   28.6910  -74.5768 H         1 UNK         0.1079 
     72 H72       -81.8669   27.3561  -71.8598 H         1 UNK         0.0837 
     73 H73       -80.6137   27.8099  -72.9863 H         1 UNK         0.0837 
     74 H74       -80.0957   31.5361  -72.4160 H         1 UNK         0.0685 
     75 H75       -80.3433   30.5071  -73.8053 H         1 UNK         0.0685 
     76 H76       -79.3977   28.5062  -70.8942 H         1 UNK         0.1434 
     77 H77       -75.2793   28.2382  -72.0102 H         1 UNK         0.1329 
     78 H78       -77.8410   31.0485  -73.9820 H         1 UNK         0.1335 
     79 H79       -74.5828   29.3659  -74.1333 H         1 UNK         0.0680 
     80 H80       -75.6372   30.5225  -74.8972 H         1 UNK         0.0680 
     81 H81       -73.4580   29.6765  -71.9324 H         1 UNK         0.1032 
     82 H82       -73.1035   31.1945  -71.1588 H         1 UNK         0.1032 
     83 H83       -71.4599   31.7656  -72.9195 H         1 UNK         0.0461 
     84 H84       -69.9280   28.7674  -73.2224 H         1 UNK         0.3453 
     85 H85       -69.1562   28.7708  -71.6561 H         1 UNK         0.3453 
     86 H86       -72.4008   29.3251  -74.2486 H         1 UNK         0.2984 
     87 H87       -72.0271   30.0163  -76.9623 H         1 UNK         0.0554 
     88 H88       -70.1062   29.1132  -78.2964 H         1 UNK         0.0847 
     89 H89       -69.0341   29.3557  -76.9178 H         1 UNK         0.0847 
     90 H90       -69.7852   30.7347  -77.7065 H         1 UNK         0.0847 
     91 H91       -72.3657   27.8736  -76.5785 H         1 UNK         0.3141 
     92 H92       -70.4796   25.2022  -75.6630 H         1 UNK         0.0743 
     93 H93       -72.2972   26.2584  -73.4377 H         1 UNK         0.0784 
     94 H94       -72.0608   24.5436  -73.7814 H         1 UNK         0.0784 
     95 H95       -70.7082   25.5402  -73.2689 H         1 UNK         0.0784 
     96 H96       -73.3625   25.6747  -75.7320 H         1 UNK         0.3213 
     97 H97       -73.6081   25.8647  -79.2019 H         1 UNK         0.0855 
     98 H98       -74.1609   23.1885  -77.8119 H         1 UNK         0.0814 
     99 H99       -73.1127   23.3967  -79.2089 H         1 UNK         0.0814 
    100 H100      -74.8296   23.7249  -79.3533 H         1 UNK         0.0814 
    101 H101      -75.6638   25.1342  -77.4406 H         1 UNK         0.3105 
    102 H102      -76.2047   28.2765  -75.8240 H         1 UNK         0.0547 
    103 H103      -77.4117   28.3912  -77.9771 H         1 UNK         0.0837 
    104 H104      -77.7769   26.6749  -77.9042 H         1 UNK         0.0837 
    105 H105      -78.4789   27.7789  -76.7222 H         1 UNK         0.0837 
    106 H106      -77.5631   25.8414  -75.4645 H         1 UNK         0.3020 
    107 H107      -75.3260   24.3254  -73.1124 H         1 UNK         0.1245 
    108 H108      -77.9120   25.8748  -72.6747 H         1 UNK         0.0781 
    109 H109      -77.7510   24.2635  -72.0354 H         1 UNK         0.0781 
    110 H110      -78.1213   26.7742  -69.9761 H         1 UNK         0.0836 
    111 H111      -76.6433   27.5433  -69.4534 H         1 UNK         0.0836 
    112 H112      -77.8181   23.7076  -74.5332 H         1 UNK         0.3022 
    113 H113      -76.1548   21.5614  -76.8216 H         1 UNK         0.0747 
    114 H114      -77.6130   19.7774  -75.8966 H         1 UNK         0.0793 
    115 H115      -76.2614   20.0708  -74.8161 H         1 UNK         0.0793 
    116 H116      -77.8519   20.7021  -74.4128 H         1 UNK         0.0793 
    117 H117      -78.9251   21.9553  -76.2819 H         1 UNK         0.3047 
    118 H118      -79.3793   24.9356  -78.1576 H         1 UNK         0.0822 
    119 H119      -80.9391   23.5073  -79.4408 H         1 UNK         0.0807 
    120 H120      -80.1630   22.0471  -78.8261 H         1 UNK         0.0807 
    121 H121      -79.2848   23.1349  -79.8921 H         1 UNK         0.0807 
    122 H122      -81.3138   23.3131  -76.9619 H         1 UNK         0.2946 
    123 H123      -82.4027   23.9494  -75.1432 H         1 UNK         0.1144 
    124 H124      -81.9508   23.1582  -72.8143 H         1 UNK         0.0793 
    125 H125      -80.2563   23.6215  -72.9635 H         1 UNK         0.0793 
    126 H126      -80.9102   22.3262  -73.9570 H         1 UNK         0.0793 
    127 H127      -81.4423   25.7605  -73.0771 H         1 UNK         0.2896 
@<TRIPOS>BOND
     1    1    2 1    
     2    1   67 1    
     3    1   68 1    
     4    1   69 1    
     5    2    3 2    
     6    2    4 am   BACKBONE|DICT|INTERRES
     7    4    5 1    
     8    4   70 1    
     9    5    6 1    
    10    5   65 1    
    11    5   71 1    
    12    6    7 1    
    13    6   72 1    
    14    6   73 1    
    15    7    8 1    
    16    8    9 1    
    17    8   74 1    
    18    8   75 1    
    19    9   10 ar   
    20    9   14 ar   
    21   10   11 ar   
    22   10   76 1    
    23   11   12 ar   
    24   11   48 1    
    25   12   13 ar   
    26   12   77 1    
    27   13   14 ar   
    28   13   15 1    
    29   14   78 1    
    30   15   16 1    
    31   15   79 1    
    32   15   80 1    
    33   16   17 1    
    34   17   18 1    
    35   17   81 1    
    36   17   82 1    
    37   18   19 1    
    38   18   22 1    
    39   18   83 1    
    40   19   20 am   BACKBONE|DICT|INTERRES
    41   19   21 2    
    42   20   84 1    
    43   20   85 1    
    44   22   23 am   BACKBONE|DICT|INTERRES
    45   22   86 1    
    46   23   24 2    
    47   23   25 1    
    48   25   26 1    
    49   25   27 1    
    50   25   87 1    
    51   26   88 1    
    52   26   89 1    
    53   26   90 1    
    54   27   28 am   BACKBONE|DICT|INTERRES
    55   27   91 1    
    56   28   29 2    
    57   28   30 1    
    58   30   31 1    
    59   30   32 1    
    60   30   92 1    
    61   31   93 1    
    62   31   94 1    
    63   31   95 1    
    64   32   33 am   BACKBONE|DICT|INTERRES
    65   32   96 1    
    66   33   34 2    
    67   33   35 1    
    68   35   36 1    
    69   35   37 1    
    70   35   97 1    
    71   36   98 1    
    72   36   99 1    
    73   36  100 1    
    74   37   38 am   BACKBONE|DICT|INTERRES
    75   37  101 1    
    76   38   39 2    
    77   38   40 1    
    78   40   41 1    
    79   40   42 1    
    80   40  102 1    
    81   41  103 1    
    82   41  104 1    
    83   41  105 1    
    84   42   43 am   BACKBONE|DICT|INTERRES
    85   42  106 1    
    86   43   44 2    
    87   43   45 1    
    88   45   46 1    
    89   45   49 1    
    90   45  107 1    
    91   46   47 1    
    92   46  108 1    
    93   46  109 1    
    94   47   48 1    
    95   48  110 1    
    96   48  111 1    
    97   49   50 am   BACKBONE|DICT|INTERRES
    98   49  112 1    
    99   50   51 2    
   100   50   52 1    
   101   52   53 1    
   102   52   54 1    
   103   52  113 1    
   104   53  114 1    
   105   53  115 1    
   106   53  116 1    
   107   54   55 am   BACKBONE|DICT|INTERRES
   108   54  117 1    
   109   55   56 2    
   110   55   57 1    
   111   57   58 1    
   112   57   59 1    
   113   57  118 1    
   114   58  119 1    
   115   58  120 1    
   116   58  121 1    
   117   59   60 am   BACKBONE|DICT|INTERRES
   118   59  122 1    
   119   60   61 2    
   120   60   62 1    
   121   62   63 1    
   122   62   64 1    
   123   62  123 1    
   124   63  124 1    
   125   63  125 1    
   126   63  126 1    
   127   64   65 am   BACKBONE|DICT|INTERRES
   128   64  127 1    
   129   65   66 2    
@<TRIPOS>SUBSTRUCTURE
     1 UNK         1 GROUP             0       ****    0 ROOT    
