@<TRIPOS>MOLECULE
3R135
127   129    1
SMALL
USER_CHARGES


@<TRIPOS>ATOM
      1 CA        -77.1473   29.9289  -74.6929 C.3       0 UNK        -0.1998 
      2 C         -78.4781   29.2176  -74.8854 C.2       0 UNK         0.4909 
      3 O         -79.1443   29.4196  -75.9006 O.2       0 UNK        -0.5240 
      4 N         -78.8542   28.3839  -73.9076 N.am      1 UNK        -0.4739 
      5 CA        -80.0618   27.5490  -73.8711 C.3       1 UNK         0.0864 
      6 C6        -81.3852   28.3627  -73.7547 C.3       11 UNK        -0.0881 
      7 S7        -81.4158   29.6463  -72.4529 S.3       11 UNK        -0.2682 
      8 C8        -81.0760   28.7255  -70.9133 C.3       11 UNK         0.0289 
      9 C9        -79.5845   28.5643  -70.6344 C.ar      11 UNK        -0.0687 
     10 C10       -79.0540   27.3041  -70.3417 C.ar      11 UNK        -0.0823 
     11 C11       -77.6876   27.1536  -70.0914 C.ar      11 UNK        -0.0830 
     12 C12       -76.8545   28.2739  -70.1135 C.ar      11 UNK        -0.1021 
     13 C13       -77.3646   29.5449  -70.4062 C.ar      11 UNK        -0.0753 
     14 C14       -78.7343   29.6767  -70.6538 C.ar      11 UNK        -0.0933 
     15 C15       -76.4920   30.8029  -70.4676 C.3       11 UNK         0.0166 
     16 S16       -74.6938   30.5527  -70.2464 S.3       11 UNK        -0.2615 
     17 C17       -74.2427   29.6625  -71.7771 C.3       11 UNK        -0.0865 
     18 CA        -73.3939   30.5343  -72.7357 C.3       10 UNK         0.0862 
     19 C         -71.9228   30.6650  -72.2527 C.2       10 UNK         0.5551 
     20 N         -71.5296   31.8254  -71.7460 N.am      10 UNK        -0.7319 
     21 O         -71.1515   29.7092  -72.3051 O.2       10 UNK        -0.5018 
     22 N         -73.4588   30.0113  -74.1048 N.am      10 UNK        -0.4509 
     23 C         -73.1004   30.7000  -75.1963 C.2       10 UNK         0.4899 
     24 O         -72.7747   31.8881  -75.1844 O.2       10 UNK        -0.4839 
     25 CA        -73.1259   29.9172  -76.5203 C.3       9 UNK         0.0222 
     26 CB        -72.4638   30.6677  -77.6951 C.3       9 UNK        -0.1966 
     27 N         -72.5769   28.5668  -76.3665 N.am      9 UNK        -0.4218 
     28 C         -71.3173   28.2066  -76.0736 C.2       9 UNK         0.5020 
     29 O         -70.3808   28.9947  -75.9402 O.2       9 UNK        -0.5274 
     30 CA        -71.0592   26.6988  -75.8950 C.3       8 UNK         0.0270 
     31 CB        -71.0416   26.3313  -74.4014 C.3       8 UNK        -0.1976 
     32 N         -72.0655   25.8839  -76.5828 N.am      8 UNK        -0.4313 
     33 C         -72.0312   25.5799  -77.8886 C.2       8 UNK         0.5041 
     34 O         -71.0794   25.8354  -78.6273 O.2       8 UNK        -0.5577 
     35 CA        -73.2821   24.9030  -78.4782 C.3       7 UNK         0.0284 
     36 CB        -73.1843   23.3753  -78.3427 C.3       7 UNK        -0.1958 
     37 N         -74.5244   25.3816  -77.8606 N.am      7 UNK        -0.4454 
     38 C         -75.0163   26.6200  -78.0303 C.2       7 UNK         0.5089 
     39 O         -74.5206   27.4460  -78.7956 O.2       7 UNK        -0.5125 
     40 CA        -76.2367   27.0411  -77.1882 C.3       6 UNK         0.0408 
     41 CB        -77.5190   26.9276  -78.0259 C.3       6 UNK        -0.1791 
     42 N         -76.4088   26.2877  -75.9440 N.am      6 UNK        -0.4762 
     43 C         -75.5217   26.1804  -74.9458 C.2       6 UNK         0.5007 
     44 O         -74.4663   26.8149  -74.9083 O.2       6 UNK        -0.5032 
     45 CA        -75.8428   25.1565  -73.8340 C.3       5 UNK         0.0783 
     46 C46       -76.4205   25.8726  -72.5898 C.3       11 UNK        -0.0857 
     47 S47       -77.0531   24.7307  -71.3076 S.3       11 UNK        -0.2512 
     48 C48       -77.0928   25.7794  -69.8175 C.3       11 UNK         0.0225 
     49 N         -76.7040   24.0486  -74.2741 N.am      5 UNK        -0.4615 
     50 C         -76.4471   23.1829  -75.2630 C.2       4 UNK         0.5053 
     51 O         -75.4945   23.2855  -76.0349 O.2       4 UNK        -0.5105 
     52 CA        -77.4089   21.9995  -75.4018 C.3       4 UNK         0.0263 
     53 CB        -77.0320   20.9164  -74.3671 C.3       4 UNK        -0.1981 
     54 N         -78.8060   22.4274  -75.2605 N.am      4 UNK        -0.4224 
     55 C         -79.8750   21.6391  -75.4519 C.2       3 UNK         0.4895 
     56 O         -79.8070   20.4498  -75.7650 O.2       3 UNK        -0.5091 
     57 CA        -81.2675   22.2718  -75.2702 C.3       3 UNK         0.0250 
     58 CB        -81.7367   22.1208  -73.8139 C.3       3 UNK        -0.1996 
     59 N         -81.3374   23.6827  -75.6540 N.am      3 UNK        -0.4254 
     60 C         -81.1433   24.1580  -76.8920 C.2       2 UNK         0.5004 
     61 O         -80.9207   23.4443  -77.8704 O.2       2 UNK        -0.5226 
     62 CA        -81.2071   25.6855  -77.0836 C.3       2 UNK         0.0269 
     63 CB        -82.4994   26.0788  -77.8186 C.3       2 UNK        -0.1926 
     64 N         -81.0989   26.4900  -75.8581 N.am      2 UNK        -0.4687 
     65 C         -80.0487   26.5167  -75.0238 C.2       1 UNK         0.5165 
     66 O         -79.0906   25.7473  -75.1288 O.2       1 UNK        -0.5079 
     67 H67       -76.8507   30.4468  -75.6048 H         1 UNK         0.0900 
     68 H68       -77.2201   30.6640  -73.8919 H         1 UNK         0.0900 
     69 H69       -76.3634   29.2152  -74.4431 H         1 UNK         0.0900 
     70 H70       -78.2713   28.3075  -73.0866 H         1 UNK         0.2959 
     71 H71       -79.9760   26.9417  -72.9707 H         1 UNK         0.1079 
     72 H72       -82.2282   27.6927  -73.5754 H         1 UNK         0.0837 
     73 H73       -81.5963   28.8788  -74.6931 H         1 UNK         0.0837 
     74 H74       -81.5806   27.7589  -70.9516 H         1 UNK         0.0685 
     75 H75       -81.5211   29.2708  -70.0801 H         1 UNK         0.0685 
     76 H76       -79.6975   26.4349  -70.3216 H         1 UNK         0.1434 
     77 H77       -75.8032   28.1369  -69.9088 H         1 UNK         0.1329 
     78 H78       -79.1436   30.6535  -70.8739 H         1 UNK         0.1335 
     79 H79       -76.8307   31.4912  -69.6920 H         1 UNK         0.0680 
     80 H80       -76.6560   31.3090  -71.4202 H         1 UNK         0.0680 
     81 H81       -75.1601   29.3472  -72.2748 H         1 UNK         0.1032 
     82 H82       -73.7206   28.7398  -71.5154 H         1 UNK         0.1032 
     83 H83       -73.8425   31.5302  -72.7621 H         1 UNK         0.0461 
     84 H84       -72.1640   32.6066  -71.6873 H         1 UNK         0.3453 
     85 H85       -70.5822   31.9220  -71.4160 H         1 UNK         0.3453 
     86 H86       -73.6591   29.0254  -74.2035 H         1 UNK         0.2984 
     87 H87       -74.1790   29.7860  -76.7727 H         1 UNK         0.0554 
     88 H88       -72.9707   31.6138  -77.8880 H         1 UNK         0.0847 
     89 H89       -72.5107   30.0824  -78.6136 H         1 UNK         0.0847 
     90 H90       -71.4169   30.8971  -77.4950 H         1 UNK         0.0847 
     91 H91       -73.2624   27.8230  -76.3817 H         1 UNK         0.3141 
     92 H92       -70.0737   26.4782  -76.3109 H         1 UNK         0.0743 
     93 H93       -70.8169   25.2748  -74.2548 H         1 UNK         0.0784 
     94 H94       -70.2779   26.9019  -73.8707 H         1 UNK         0.0784 
     95 H95       -71.9952   26.5434  -73.9170 H         1 UNK         0.0784 
     96 H96       -72.8945   25.6486  -76.0528 H         1 UNK         0.3213 
     97 H97       -73.3198   25.1464  -79.5425 H         1 UNK         0.0855 
     98 H98       -73.1101   23.0647  -77.2999 H         1 UNK         0.0814 
     99 H99       -72.3015   22.9952  -78.8584 H         1 UNK         0.0814 
    100 H100      -74.0528   22.8809  -78.7782 H         1 UNK         0.0814 
    101 H101      -74.9910   24.7439  -77.2196 H         1 UNK         0.3105 
    102 H102      -76.0974   28.0893  -76.9185 H         1 UNK         0.0547 
    103 H103      -77.7535   25.8900  -78.2663 H         1 UNK         0.0837 
    104 H104      -77.4225   27.4692  -78.9680 H         1 UNK         0.0837 
    105 H105      -78.3722   27.3540  -77.5003 H         1 UNK         0.0837 
    106 H106      -77.2929   25.7997  -75.8278 H         1 UNK         0.3020 
    107 H107      -74.8891   24.7079  -73.5476 H         1 UNK         0.1245 
    108 H108      -77.2498   26.5170  -72.8765 H         1 UNK         0.0781 
    109 H109      -75.6607   26.5196  -72.1474 H         1 UNK         0.0781 
    110 H110      -76.0788   25.8677  -69.4241 H         1 UNK         0.0836 
    111 H111      -77.6753   25.2773  -69.0438 H         1 UNK         0.0836 
    112 H112      -77.4930   23.8716  -73.6698 H         1 UNK         0.3022 
    113 H113      -77.2804   21.5892  -76.4056 H         1 UNK         0.0747 
    114 H114      -77.5613   19.9808  -74.5436 H         1 UNK         0.0793 
    115 H115      -75.9666   20.6853  -74.4127 H         1 UNK         0.0793 
    116 H116      -77.2524   21.2378  -73.3484 H         1 UNK         0.0793 
    117 H117      -78.9596   23.4146  -75.0901 H         1 UNK         0.3047 
    118 H118      -81.9605   21.7221  -75.9110 H         1 UNK         0.0822 
    119 H119      -82.7593   22.4766  -73.6864 H         1 UNK         0.0807 
    120 H120      -81.0985   22.6738  -73.1233 H         1 UNK         0.0807 
    121 H121      -81.7198   21.0744  -73.5054 H         1 UNK         0.0807 
    122 H122      -81.5265   24.3479  -74.9194 H         1 UNK         0.2946 
    123 H123      -80.3620   25.9489  -77.7220 H         1 UNK         0.1144 
    124 H124      -82.5074   27.1398  -78.0690 H         1 UNK         0.0793 
    125 H125      -83.3849   25.8669  -77.2181 H         1 UNK         0.0793 
    126 H126      -82.6019   25.5286  -78.7552 H         1 UNK         0.0793 
    127 H127      -81.8464   27.1497  -75.6999 H         1 UNK         0.2896 
@<TRIPOS>BOND
     1    1    2 1    
     2    1   67 1    
     3    1   68 1    
     4    1   69 1    
     5    2    3 2    
     6    2    4 am   BACKBONE|DICT|INTERRES
     7    4    5 1    
     8    4   70 1    
     9    5    6 1    
    10    5   65 1    
    11    5   71 1    
    12    6    7 1    
    13    6   72 1    
    14    6   73 1    
    15    7    8 1    
    16    8    9 1    
    17    8   74 1    
    18    8   75 1    
    19    9   10 ar   
    20    9   14 ar   
    21   10   11 ar   
    22   10   76 1    
    23   11   12 ar   
    24   11   48 1    
    25   12   13 ar   
    26   12   77 1    
    27   13   14 ar   
    28   13   15 1    
    29   14   78 1    
    30   15   16 1    
    31   15   79 1    
    32   15   80 1    
    33   16   17 1    
    34   17   18 1    
    35   17   81 1    
    36   17   82 1    
    37   18   19 1    
    38   18   22 1    
    39   18   83 1    
    40   19   20 am   BACKBONE|DICT|INTERRES
    41   19   21 2    
    42   20   84 1    
    43   20   85 1    
    44   22   23 am   BACKBONE|DICT|INTERRES
    45   22   86 1    
    46   23   24 2    
    47   23   25 1    
    48   25   26 1    
    49   25   27 1    
    50   25   87 1    
    51   26   88 1    
    52   26   89 1    
    53   26   90 1    
    54   27   28 am   BACKBONE|DICT|INTERRES
    55   27   91 1    
    56   28   29 2    
    57   28   30 1    
    58   30   31 1    
    59   30   32 1    
    60   30   92 1    
    61   31   93 1    
    62   31   94 1    
    63   31   95 1    
    64   32   33 am   BACKBONE|DICT|INTERRES
    65   32   96 1    
    66   33   34 2    
    67   33   35 1    
    68   35   36 1    
    69   35   37 1    
    70   35   97 1    
    71   36   98 1    
    72   36   99 1    
    73   36  100 1    
    74   37   38 am   BACKBONE|DICT|INTERRES
    75   37  101 1    
    76   38   39 2    
    77   38   40 1    
    78   40   41 1    
    79   40   42 1    
    80   40  102 1    
    81   41  103 1    
    82   41  104 1    
    83   41  105 1    
    84   42   43 am   BACKBONE|DICT|INTERRES
    85   42  106 1    
    86   43   44 2    
    87   43   45 1    
    88   45   46 1    
    89   45   49 1    
    90   45  107 1    
    91   46   47 1    
    92   46  108 1    
    93   46  109 1    
    94   47   48 1    
    95   48  110 1    
    96   48  111 1    
    97   49   50 am   BACKBONE|DICT|INTERRES
    98   49  112 1    
    99   50   51 2    
   100   50   52 1    
   101   52   53 1    
   102   52   54 1    
   103   52  113 1    
   104   53  114 1    
   105   53  115 1    
   106   53  116 1    
   107   54   55 am   BACKBONE|DICT|INTERRES
   108   54  117 1    
   109   55   56 2    
   110   55   57 1    
   111   57   58 1    
   112   57   59 1    
   113   57  118 1    
   114   58  119 1    
   115   58  120 1    
   116   58  121 1    
   117   59   60 am   BACKBONE|DICT|INTERRES
   118   59  122 1    
   119   60   61 2    
   120   60   62 1    
   121   62   63 1    
   122   62   64 1    
   123   62  123 1    
   124   63  124 1    
   125   63  125 1    
   126   63  126 1    
   127   64   65 am   BACKBONE|DICT|INTERRES
   128   64  127 1    
   129   65   66 2    
@<TRIPOS>SUBSTRUCTURE
     1 UNK         1 GROUP             0       ****    0 ROOT    
