@<TRIPOS>MOLECULE
3R135
127   129    1
SMALL
USER_CHARGES


@<TRIPOS>ATOM
      1 CA        -83.4308   26.3135  -75.9059 C.3       0 UNK        -0.1998 
      2 C         -82.2823   27.2795  -75.6612 C.2       0 UNK         0.4909 
      3 O         -81.5973   27.6678  -76.6079 O.2       0 UNK        -0.5240 
      4 N         -82.0591   27.6709  -74.3998 N.am      1 UNK        -0.4739 
      5 CA        -80.9656   28.5545  -73.9823 C.3       1 UNK         0.0864 
      6 C6        -81.1347   29.0601  -72.5265 C.3       11 UNK        -0.0881 
      7 S7        -81.3903   27.7449  -71.2811 S.3       11 UNK        -0.2682 
      8 C8        -80.3550   28.3278  -69.9011 C.3       11 UNK         0.0289 
      9 C9        -78.8698   28.1121  -70.1571 C.ar      11 UNK        -0.0687 
     10 C10       -78.3082   26.8436  -69.9896 C.ar      11 UNK        -0.0823 
     11 C11       -76.9395   26.6358  -70.1918 C.ar      11 UNK        -0.0830 
     12 C12       -76.1287   27.7124  -70.5652 C.ar      11 UNK        -0.1021 
     13 C13       -76.6770   28.9897  -70.7183 C.ar      11 UNK        -0.0753 
     14 C14       -78.0473   29.1827  -70.5188 C.ar      11 UNK        -0.0933 
     15 C15       -75.7904   30.1721  -71.0704 C.3       11 UNK         0.0166 
     16 S16       -75.7465   30.4338  -72.8645 S.3       11 UNK        -0.2615 
     17 C17       -74.9395   32.0710  -72.9690 C.3       11 UNK        -0.0865 
     18 CA        -73.4543   32.0163  -73.4138 C.3       10 UNK         0.0862 
     19 C         -72.5062   31.5526  -72.2671 C.2       10 UNK         0.5551 
     20 N         -71.6937   30.5161  -72.4364 N.am      10 UNK        -0.7319 
     21 O         -72.5002   32.1599  -71.1991 O.2       10 UNK        -0.5018 
     22 N         -73.3094   31.2823  -74.6778 N.am      10 UNK        -0.4509 
     23 C         -72.3226   31.4452  -75.5656 C.2       10 UNK         0.4899 
     24 O         -71.4598   32.3204  -75.4783 O.2       10 UNK        -0.4839 
     25 CA        -72.3020   30.4455  -76.7416 C.3       9 UNK         0.0222 
     26 CB        -70.9340   30.3951  -77.4543 C.3       9 UNK        -0.1966 
     27 N         -72.7337   29.0895  -76.3657 N.am      9 UNK        -0.4218 
     28 C         -72.2043   28.3048  -75.4126 C.2       9 UNK         0.5020 
     29 O         -71.2750   28.6511  -74.6820 O.2       9 UNK        -0.5274 
     30 CA        -72.8297   26.9131  -75.1973 C.3       8 UNK         0.0270 
     31 CB        -73.6297   26.8925  -73.8841 C.3       8 UNK        -0.1976 
     32 N         -73.6881   26.4316  -76.2860 N.am      8 UNK        -0.4313 
     33 C         -73.2853   26.1450  -77.5313 C.2       8 UNK         0.5041 
     34 O         -72.1325   26.3008  -77.9377 O.2       8 UNK        -0.5577 
     35 CA        -74.3752   25.5834  -78.4597 C.3       7 UNK         0.0284 
     36 CB        -73.9104   25.4021  -79.9210 C.3       7 UNK        -0.1958 
     37 N         -74.9464   24.3471  -77.9125 N.am      7 UNK        -0.4454 
     38 C         -74.3311   23.1686  -77.7407 C.2       7 UNK         0.5089 
     39 O         -73.1682   22.9352  -78.0747 O.2       7 UNK        -0.5125 
     40 CA        -75.1842   22.0581  -77.0985 C.3       6 UNK         0.0408 
     41 CB        -74.3698   20.7896  -76.7649 C.3       6 UNK        -0.1791 
     42 N         -75.9493   22.5019  -75.9266 N.am      6 UNK        -0.4762 
     43 C         -75.4703   22.9775  -74.7640 C.2       6 UNK         0.5007 
     44 O         -74.2773   23.2059  -74.5627 O.2       6 UNK        -0.5032 
     45 CA        -76.4970   23.1842  -73.6272 C.3       5 UNK         0.0783 
     46 C46       -76.0384   24.1853  -72.5372 C.3       11 UNK        -0.0857 
     47 S47       -77.0448   23.9862  -71.0320 S.3       11 UNK        -0.2512 
     48 C48       -76.3346   25.2607  -69.9457 C.3       11 UNK         0.0225 
     49 N         -77.8025   23.5567  -74.1751 N.am      5 UNK        -0.4615 
     50 C         -78.8548   22.7414  -74.3096 C.2       4 UNK         0.5053 
     51 O         -78.8680   21.5679  -73.9387 O.2       4 UNK        -0.5105 
     52 CA        -80.0881   23.3190  -75.0255 C.3       4 UNK         0.0263 
     53 CB        -81.1351   23.7934  -74.0047 C.3       4 UNK        -0.1981 
     54 N         -79.7457   24.4133  -75.9419 N.am      4 UNK        -0.4224 
     55 C         -79.0749   24.2448  -77.0929 C.2       3 UNK         0.4895 
     56 O         -78.7206   23.1462  -77.5208 O.2       3 UNK        -0.5091 
     57 CA        -78.6908   25.5055  -77.8839 C.3       3 UNK         0.0250 
     58 CB        -79.7547   25.8212  -78.9463 C.3       3 UNK        -0.1996 
     59 N         -78.4767   26.6779  -77.0329 N.am      3 UNK        -0.4254 
     60 C         -77.4362   26.8335  -76.2002 C.2       2 UNK         0.5004 
     61 O         -76.5368   26.0039  -76.0621 O.2       2 UNK        -0.5226 
     62 CA        -77.3913   28.1270  -75.3700 C.3       2 UNK         0.0269 
     63 CB        -76.6751   29.2256  -76.1732 C.3       2 UNK        -0.1926 
     64 N         -78.7104   28.6104  -74.9499 N.am      2 UNK        -0.4687 
     65 C         -79.5942   27.8954  -74.2385 C.2       1 UNK         0.5165 
     66 O         -79.3830   26.7442  -73.8518 O.2       1 UNK        -0.5079 
     67 H67       -84.1958   26.7901  -76.5180 H         1 UNK         0.0900 
     68 H68       -83.0723   25.4313  -76.4357 H         1 UNK         0.0900 
     69 H69       -83.8940   25.9871  -74.9749 H         1 UNK         0.0900 
     70 H70       -82.6184   27.2967  -73.6462 H         1 UNK         0.2959 
     71 H71       -81.0252   29.4355  -74.6256 H         1 UNK         0.1079 
     72 H72       -82.0007   29.7218  -72.4772 H         1 UNK         0.0837 
     73 H73       -80.2836   29.6821  -72.2464 H         1 UNK         0.0837 
     74 H74       -80.6440   27.7885  -68.9979 H         1 UNK         0.0685 
     75 H75       -80.5678   29.3799  -69.7049 H         1 UNK         0.0685 
     76 H76       -78.9383   26.0149  -69.6963 H         1 UNK         0.1434 
     77 H77       -75.0679   27.5644  -70.7155 H         1 UNK         0.1329 
     78 H78       -78.4693   30.1715  -70.6344 H         1 UNK         0.1335 
     79 H79       -74.7757   30.0133  -70.7016 H         1 UNK         0.0680 
     80 H80       -76.1639   31.0699  -70.5755 H         1 UNK         0.0680 
     81 H81       -75.0463   32.6094  -72.0254 H         1 UNK         0.1032 
     82 H82       -75.5030   32.6607  -73.6936 H         1 UNK         0.1032 
     83 H83       -73.1589   33.0483  -73.6129 H         1 UNK         0.0461 
     84 H84       -71.0872   30.2439  -71.6800 H         1 UNK         0.3453 
     85 H85       -71.6592   30.0048  -73.3122 H         1 UNK         0.3453 
     86 H86       -73.9645   30.5268  -74.8118 H         1 UNK         0.2984 
     87 H87       -73.0356   30.8111  -77.4614 H         1 UNK         0.0554 
     88 H88       -70.6630   31.3726  -77.8552 H         1 UNK         0.0847 
     89 H89       -70.9478   29.6960  -78.2905 H         1 UNK         0.0847 
     90 H90       -70.1369   30.0892  -76.7758 H         1 UNK         0.0847 
     91 H91       -73.4875   28.7014  -76.9127 H         1 UNK         0.3141 
     92 H92       -72.0019   26.2076  -75.1010 H         1 UNK         0.0743 
     93 H93       -73.0215   27.2334  -73.0449 H         1 UNK         0.0784 
     94 H94       -73.9604   25.8826  -73.6478 H         1 UNK         0.0784 
     95 H95       -74.5074   27.5372  -73.9310 H         1 UNK         0.0784 
     96 H96       -74.6588   26.2330  -76.0517 H         1 UNK         0.3213 
     97 H97       -75.1819   26.3181  -78.4712 H         1 UNK         0.0855 
     98 H98       -73.0650   24.7185  -80.0028 H         1 UNK         0.0814 
     99 H99       -73.5935   26.3551  -80.3462 H         1 UNK         0.0814 
    100 H100      -74.7146   25.0182  -80.5485 H         1 UNK         0.0814 
    101 H101      -75.8634   24.4471  -77.4958 H         1 UNK         0.3105 
    102 H102      -75.9245   21.7791  -77.8499 H         1 UNK         0.0547 
    103 H103      -75.0045   20.0072  -76.3493 H         1 UNK         0.0837 
    104 H104      -73.5755   20.9953  -76.0465 H         1 UNK         0.0837 
    105 H105      -73.8991   20.3806  -77.6597 H         1 UNK         0.0837 
    106 H106      -76.9522   22.3907  -76.0039 H         1 UNK         0.3020 
    107 H107      -76.5681   22.2026  -73.1526 H         1 UNK         0.1245 
    108 H108      -76.1170   25.2144  -72.8929 H         1 UNK         0.0781 
    109 H109      -74.9967   24.0223  -72.2555 H         1 UNK         0.0781 
    110 H110      -75.2496   25.2775  -70.0599 H         1 UNK         0.0836 
    111 H111      -76.5259   24.9788  -68.9094 H         1 UNK         0.0836 
    112 H112      -77.8818   24.5067  -74.5119 H         1 UNK         0.3022 
    113 H113      -80.5321   22.5128  -75.6136 H         1 UNK         0.0747 
    114 H114      -82.0402   24.1462  -74.4967 H         1 UNK         0.0793 
    115 H115      -81.4276   22.9771  -73.3429 H         1 UNK         0.0793 
    116 H116      -80.7562   24.5977  -73.3738 H         1 UNK         0.0793 
    117 H117      -79.9390   25.3533  -75.6208 H         1 UNK         0.3047 
    118 H118      -77.7546   25.2941  -78.4043 H         1 UNK         0.0822 
    119 H119      -79.4759   26.6896  -79.5433 H         1 UNK         0.0807 
    120 H120      -80.7294   26.0190  -78.4998 H         1 UNK         0.0807 
    121 H121      -79.8780   24.9829  -79.6336 H         1 UNK         0.0807 
    122 H122      -79.1923   27.3934  -77.0549 H         1 UNK         0.2946 
    123 H123      -76.8206   27.9178  -74.4627 H         1 UNK         0.1144 
    124 H124      -76.6123   30.1594  -75.6162 H         1 UNK         0.0793 
    125 H125      -77.1875   29.4382  -77.1125 H         1 UNK         0.0793 
    126 H126      -75.6570   28.9257  -76.4192 H         1 UNK         0.0793 
    127 H127      -78.9605   29.5431  -75.2458 H         1 UNK         0.2896 
@<TRIPOS>BOND
     1    1    2 1    
     2    1   67 1    
     3    1   68 1    
     4    1   69 1    
     5    2    3 2    
     6    2    4 am   BACKBONE|DICT|INTERRES
     7    4    5 1    
     8    4   70 1    
     9    5    6 1    
    10    5   65 1    
    11    5   71 1    
    12    6    7 1    
    13    6   72 1    
    14    6   73 1    
    15    7    8 1    
    16    8    9 1    
    17    8   74 1    
    18    8   75 1    
    19    9   10 ar   
    20    9   14 ar   
    21   10   11 ar   
    22   10   76 1    
    23   11   12 ar   
    24   11   48 1    
    25   12   13 ar   
    26   12   77 1    
    27   13   14 ar   
    28   13   15 1    
    29   14   78 1    
    30   15   16 1    
    31   15   79 1    
    32   15   80 1    
    33   16   17 1    
    34   17   18 1    
    35   17   81 1    
    36   17   82 1    
    37   18   19 1    
    38   18   22 1    
    39   18   83 1    
    40   19   20 am   BACKBONE|DICT|INTERRES
    41   19   21 2    
    42   20   84 1    
    43   20   85 1    
    44   22   23 am   BACKBONE|DICT|INTERRES
    45   22   86 1    
    46   23   24 2    
    47   23   25 1    
    48   25   26 1    
    49   25   27 1    
    50   25   87 1    
    51   26   88 1    
    52   26   89 1    
    53   26   90 1    
    54   27   28 am   BACKBONE|DICT|INTERRES
    55   27   91 1    
    56   28   29 2    
    57   28   30 1    
    58   30   31 1    
    59   30   32 1    
    60   30   92 1    
    61   31   93 1    
    62   31   94 1    
    63   31   95 1    
    64   32   33 am   BACKBONE|DICT|INTERRES
    65   32   96 1    
    66   33   34 2    
    67   33   35 1    
    68   35   36 1    
    69   35   37 1    
    70   35   97 1    
    71   36   98 1    
    72   36   99 1    
    73   36  100 1    
    74   37   38 am   BACKBONE|DICT|INTERRES
    75   37  101 1    
    76   38   39 2    
    77   38   40 1    
    78   40   41 1    
    79   40   42 1    
    80   40  102 1    
    81   41  103 1    
    82   41  104 1    
    83   41  105 1    
    84   42   43 am   BACKBONE|DICT|INTERRES
    85   42  106 1    
    86   43   44 2    
    87   43   45 1    
    88   45   46 1    
    89   45   49 1    
    90   45  107 1    
    91   46   47 1    
    92   46  108 1    
    93   46  109 1    
    94   47   48 1    
    95   48  110 1    
    96   48  111 1    
    97   49   50 am   BACKBONE|DICT|INTERRES
    98   49  112 1    
    99   50   51 2    
   100   50   52 1    
   101   52   53 1    
   102   52   54 1    
   103   52  113 1    
   104   53  114 1    
   105   53  115 1    
   106   53  116 1    
   107   54   55 am   BACKBONE|DICT|INTERRES
   108   54  117 1    
   109   55   56 2    
   110   55   57 1    
   111   57   58 1    
   112   57   59 1    
   113   57  118 1    
   114   58  119 1    
   115   58  120 1    
   116   58  121 1    
   117   59   60 am   BACKBONE|DICT|INTERRES
   118   59  122 1    
   119   60   61 2    
   120   60   62 1    
   121   62   63 1    
   122   62   64 1    
   123   62  123 1    
   124   63  124 1    
   125   63  125 1    
   126   63  126 1    
   127   64   65 am   BACKBONE|DICT|INTERRES
   128   64  127 1    
   129   65   66 2    
@<TRIPOS>SUBSTRUCTURE
     1 UNK         1 GROUP             0       ****    0 ROOT    
