@<TRIPOS>MOLECULE
3R135
127   129    1
SMALL
USER_CHARGES


@<TRIPOS>ATOM
      1 CA        -85.7798   29.6696  -74.8860 C.3       0 UNK        -0.1998 
      2 C         -84.6393   28.6918  -74.6479 C.2       0 UNK         0.4909 
      3 O         -84.8538   27.6420  -74.0401 O.2       0 UNK        -0.5240 
      4 N         -83.4323   29.0275  -75.1271 N.am      1 UNK        -0.4739 
      5 CA        -82.1856   28.2521  -75.0441 C.3       1 UNK         0.0864 
      6 C6        -81.7718   27.9109  -73.5856 C.3       11 UNK        -0.0881 
      7 S7        -80.0193   27.4340  -73.4385 S.3       11 UNK        -0.2682 
      8 C8        -79.3004   28.9199  -72.6723 C.3       11 UNK         0.0289 
      9 C9        -77.8027   28.7480  -72.4763 C.ar      11 UNK        -0.0687 
     10 C10       -77.3279   27.8798  -71.4884 C.ar      11 UNK        -0.0823 
     11 C11       -75.9565   27.6599  -71.3378 C.ar      11 UNK        -0.0830 
     12 C12       -75.0601   28.3381  -72.1645 C.ar      11 UNK        -0.1021 
     13 C13       -75.5179   29.2120  -73.1528 C.ar      11 UNK        -0.0753 
     14 C14       -76.8931   29.4213  -73.2994 C.ar      11 UNK        -0.0933 
     15 C15       -74.5279   29.8518  -74.1155 C.3       11 UNK         0.0166 
     16 S16       -74.0229   31.5291  -73.6195 S.3       11 UNK        -0.2615 
     17 C17       -73.0128   31.2569  -72.1193 C.3       11 UNK        -0.0865 
     18 CA        -71.4830   31.1958  -72.4136 C.3       10 UNK         0.0862 
     19 C         -70.6039   31.4552  -71.1492 C.2       10 UNK         0.5551 
     20 N         -69.4028   30.8968  -71.0573 N.am      10 UNK        -0.7319 
     21 O         -70.9940   32.2009  -70.2538 O.2       10 UNK        -0.5018 
     22 N         -71.1015   30.0032  -73.1947 N.am      10 UNK        -0.4509 
     23 C         -71.1562   28.7270  -72.7877 C.2       10 UNK         0.4899 
     24 O         -71.5118   28.3894  -71.6582 O.2       10 UNK        -0.4839 
     25 CA        -70.7507   27.6480  -73.8166 C.3       9 UNK         0.0222 
     26 CB        -71.1129   26.2253  -73.3505 C.3       9 UNK        -0.1966 
     27 N         -71.3244   27.8802  -75.1498 N.am      9 UNK        -0.4218 
     28 C         -70.8396   28.7468  -76.0511 C.2       9 UNK         0.5020 
     29 O         -69.8727   29.4741  -75.8152 O.2       9 UNK        -0.5274 
     30 CA        -71.5554   28.8908  -77.4099 C.3       8 UNK         0.0270 
     31 CB        -70.5524   29.0405  -78.5740 C.3       8 UNK        -0.1976 
     32 N         -72.5561   27.8642  -77.7252 N.am      8 UNK        -0.4313 
     33 C         -72.3837   26.5505  -77.9215 C.2       8 UNK         0.5041 
     34 O         -71.3118   25.9675  -77.7508 O.2       8 UNK        -0.5577 
     35 CA        -73.6293   25.7664  -78.3965 C.3       7 UNK         0.0284 
     36 CB        -73.3326   24.2733  -78.6282 C.3       7 UNK        -0.1958 
     37 N         -74.7663   25.8829  -77.4778 N.am      7 UNK        -0.4454 
     38 C         -75.5032   26.9835  -77.2638 C.2       7 UNK         0.5089 
     39 O         -75.3426   28.0325  -77.8904 O.2       7 UNK        -0.5125 
     40 CA        -76.5782   26.9392  -76.1611 C.3       6 UNK         0.0408 
     41 CB        -77.9767   26.9507  -76.7941 C.3       6 UNK        -0.1791 
     42 N         -76.4737   25.8101  -75.2297 N.am      6 UNK        -0.4762 
     43 C         -75.4209   25.5458  -74.4351 C.2       6 UNK         0.5007 
     44 O         -74.3991   26.2323  -74.4238 O.2       6 UNK        -0.5032 
     45 CA        -75.4738   24.2526  -73.5834 C.3       5 UNK         0.0783 
     46 C46       -75.9145   24.5188  -72.1205 C.3       11 UNK        -0.0857 
     47 S47       -74.5929   25.2434  -71.0909 S.3       11 UNK        -0.2512 
     48 C48       -75.4397   26.6607  -70.3126 C.3       11 UNK         0.0225 
     49 N         -76.3149   23.2109  -74.1815 N.am      5 UNK        -0.4615 
     50 C         -76.1618   22.6643  -75.3955 C.2       4 UNK         0.5053 
     51 O         -75.2161   22.9142  -76.1427 O.2       4 UNK        -0.5105 
     52 CA        -77.2772   21.7142  -75.8748 C.3       4 UNK         0.0263 
     53 CB        -76.8314   20.2503  -75.7299 C.3       4 UNK        -0.1981 
     54 N         -78.5676   21.8977  -75.1918 N.am      4 UNK        -0.4224 
     55 C         -79.2978   23.0228  -75.2089 C.2       3 UNK         0.4895 
     56 O         -78.9476   24.0557  -75.7818 O.2       3 UNK        -0.5091 
     57 CA        -80.5889   23.0108  -74.3746 C.3       3 UNK         0.0250 
     58 CB        -80.2812   23.4058  -72.9201 C.3       3 UNK        -0.1996 
     59 N         -81.5977   23.9275  -74.9087 N.am      3 UNK        -0.4254 
     60 C         -82.2820   23.7407  -76.0462 C.2       2 UNK         0.5004 
     61 O         -82.1656   22.7387  -76.7538 O.2       2 UNK        -0.5226 
     62 CA        -83.2919   24.8302  -76.4566 C.3       2 UNK         0.0269 
     63 CB        -84.7332   24.3282  -76.2670 C.3       2 UNK        -0.1926 
     64 N         -83.1336   26.0862  -75.7177 N.am      2 UNK        -0.4687 
     65 C         -82.2047   27.0161  -75.9704 C.2       1 UNK         0.5165 
     66 O         -81.4043   26.9395  -76.9024 O.2       1 UNK        -0.5079 
     67 H67       -86.5701   29.1898  -75.4626 H         1 UNK         0.0900 
     68 H68       -86.2005   29.9929  -73.9343 H         1 UNK         0.0900 
     69 H69       -85.4523   30.5553  -75.4302 H         1 UNK         0.0900 
     70 H70       -83.3478   29.8958  -75.6384 H         1 UNK         0.2959 
     71 H71       -81.4195   28.9177  -75.4466 H         1 UNK         0.1079 
     72 H72       -81.9547   28.7709  -72.9397 H         1 UNK         0.0837 
     73 H73       -82.3830   27.1053  -73.1758 H         1 UNK         0.0837 
     74 H74       -79.5115   29.7886  -73.2979 H         1 UNK         0.0685 
     75 H75       -79.7769   29.1022  -71.7080 H         1 UNK         0.0685 
     76 H76       -78.0330   27.3486  -70.8636 H         1 UNK         0.1434 
     77 H77       -74.0034   28.1374  -72.0711 H         1 UNK         0.1329 
     78 H78       -77.2538   30.0801  -74.0773 H         1 UNK         0.1335 
     79 H79       -74.9760   29.9072  -75.1088 H         1 UNK         0.0680 
     80 H80       -73.6488   29.2190  -74.2271 H         1 UNK         0.0680 
     81 H81       -73.2403   32.0945  -71.4579 H         1 UNK         0.1032 
     82 H82       -73.3442   30.3712  -71.5798 H         1 UNK         0.1032 
     83 H83       -71.2519   32.0415  -73.0622 H         1 UNK         0.0461 
     84 H84       -68.8338   31.0763  -70.2451 H         1 UNK         0.3453 
     85 H85       -69.0653   30.2930  -71.7895 H         1 UNK         0.3453 
     86 H86       -70.7362   30.1773  -74.1247 H         1 UNK         0.2984 
     87 H87       -69.6628   27.6892  -73.9006 H         1 UNK         0.0554 
     88 H88       -70.5780   25.9673  -72.4358 H         1 UNK         0.0847 
     89 H89       -70.8505   25.4783  -74.0999 H         1 UNK         0.0847 
     90 H90       -72.1770   26.1291  -73.1360 H         1 UNK         0.0847 
     91 H91       -72.1443   27.3389  -75.3898 H         1 UNK         0.3141 
     92 H92       -72.1137   29.8257  -77.3418 H         1 UNK         0.0743 
     93 H93       -69.8967   29.8990  -78.4235 H         1 UNK         0.0784 
     94 H94       -69.9162   28.1604  -78.6736 H         1 UNK         0.0784 
     95 H95       -71.0657   29.1929  -79.5234 H         1 UNK         0.0784 
     96 H96       -73.5088   28.2046  -77.8509 H         1 UNK         0.3213 
     97 H97       -73.9257   26.1958  -79.3560 H         1 UNK         0.0855 
     98 H98       -73.0238   23.7775  -77.7068 H         1 UNK         0.0814 
     99 H99       -72.5305   24.1409  -79.3555 H         1 UNK         0.0814 
    100 H100      -74.2073   23.7483  -79.0124 H         1 UNK         0.0814 
    101 H101      -74.9552   25.0726  -76.9000 H         1 UNK         0.3105 
    102 H102      -76.4671   27.8503  -75.5741 H         1 UNK         0.0547 
    103 H103      -78.1195   27.8327  -77.4195 H         1 UNK         0.0837 
    104 H104      -78.1428   26.0750  -77.4224 H         1 UNK         0.0837 
    105 H105      -78.7572   26.9658  -76.0352 H         1 UNK         0.0837 
    106 H106      -77.2625   25.1711  -75.2235 H         1 UNK         0.3020 
    107 H107      -74.4577   23.8516  -73.5693 H         1 UNK         0.1245 
    108 H108      -76.1866   23.5793  -71.6367 H         1 UNK         0.0781 
    109 H109      -76.8167   25.1316  -72.0918 H         1 UNK         0.0781 
    110 H110      -74.7404   27.1659  -69.6450 H         1 UNK         0.0836 
    111 H111      -76.2509   26.2895  -69.6844 H         1 UNK         0.0836 
    112 H112      -77.1246   22.9347  -73.6477 H         1 UNK         0.3022 
    113 H113      -77.4366   21.9205  -76.9353 H         1 UNK         0.0747 
    114 H114      -75.8891   20.0758  -76.2516 H         1 UNK         0.0793 
    115 H115      -76.6809   19.9750  -74.6852 H         1 UNK         0.0793 
    116 H116      -77.5656   19.5667  -76.1567 H         1 UNK         0.0793 
    117 H117      -78.9201   21.1002  -74.6812 H         1 UNK         0.3047 
    118 H118      -81.0067   22.0017  -74.3866 H         1 UNK         0.0822 
    119 H119      -79.5786   22.7085  -72.4621 H         1 UNK         0.0807 
    120 H120      -81.1829   23.4003  -72.3074 H         1 UNK         0.0807 
    121 H121      -79.8397   24.4015  -72.8568 H         1 UNK         0.0807 
    122 H122      -81.7268   24.7989  -74.4170 H         1 UNK         0.2946 
    123 H123      -83.1344   25.0277  -77.5195 H         1 UNK         0.1144 
    124 H124      -84.9061   23.4099  -76.8302 H         1 UNK         0.0793 
    125 H125      -85.4583   25.0629  -76.6179 H         1 UNK         0.0793 
    126 H126      -84.9513   24.1152  -75.2197 H         1 UNK         0.0793 
    127 H127      -83.7996   26.2829  -74.9754 H         1 UNK         0.2896 
@<TRIPOS>BOND
     1    1    2 1    
     2    1   67 1    
     3    1   68 1    
     4    1   69 1    
     5    2    3 2    
     6    2    4 am   BACKBONE|DICT|INTERRES
     7    4    5 1    
     8    4   70 1    
     9    5    6 1    
    10    5   65 1    
    11    5   71 1    
    12    6    7 1    
    13    6   72 1    
    14    6   73 1    
    15    7    8 1    
    16    8    9 1    
    17    8   74 1    
    18    8   75 1    
    19    9   10 ar   
    20    9   14 ar   
    21   10   11 ar   
    22   10   76 1    
    23   11   12 ar   
    24   11   48 1    
    25   12   13 ar   
    26   12   77 1    
    27   13   14 ar   
    28   13   15 1    
    29   14   78 1    
    30   15   16 1    
    31   15   79 1    
    32   15   80 1    
    33   16   17 1    
    34   17   18 1    
    35   17   81 1    
    36   17   82 1    
    37   18   19 1    
    38   18   22 1    
    39   18   83 1    
    40   19   20 am   BACKBONE|DICT|INTERRES
    41   19   21 2    
    42   20   84 1    
    43   20   85 1    
    44   22   23 am   BACKBONE|DICT|INTERRES
    45   22   86 1    
    46   23   24 2    
    47   23   25 1    
    48   25   26 1    
    49   25   27 1    
    50   25   87 1    
    51   26   88 1    
    52   26   89 1    
    53   26   90 1    
    54   27   28 am   BACKBONE|DICT|INTERRES
    55   27   91 1    
    56   28   29 2    
    57   28   30 1    
    58   30   31 1    
    59   30   32 1    
    60   30   92 1    
    61   31   93 1    
    62   31   94 1    
    63   31   95 1    
    64   32   33 am   BACKBONE|DICT|INTERRES
    65   32   96 1    
    66   33   34 2    
    67   33   35 1    
    68   35   36 1    
    69   35   37 1    
    70   35   97 1    
    71   36   98 1    
    72   36   99 1    
    73   36  100 1    
    74   37   38 am   BACKBONE|DICT|INTERRES
    75   37  101 1    
    76   38   39 2    
    77   38   40 1    
    78   40   41 1    
    79   40   42 1    
    80   40  102 1    
    81   41  103 1    
    82   41  104 1    
    83   41  105 1    
    84   42   43 am   BACKBONE|DICT|INTERRES
    85   42  106 1    
    86   43   44 2    
    87   43   45 1    
    88   45   46 1    
    89   45   49 1    
    90   45  107 1    
    91   46   47 1    
    92   46  108 1    
    93   46  109 1    
    94   47   48 1    
    95   48  110 1    
    96   48  111 1    
    97   49   50 am   BACKBONE|DICT|INTERRES
    98   49  112 1    
    99   50   51 2    
   100   50   52 1    
   101   52   53 1    
   102   52   54 1    
   103   52  113 1    
   104   53  114 1    
   105   53  115 1    
   106   53  116 1    
   107   54   55 am   BACKBONE|DICT|INTERRES
   108   54  117 1    
   109   55   56 2    
   110   55   57 1    
   111   57   58 1    
   112   57   59 1    
   113   57  118 1    
   114   58  119 1    
   115   58  120 1    
   116   58  121 1    
   117   59   60 am   BACKBONE|DICT|INTERRES
   118   59  122 1    
   119   60   61 2    
   120   60   62 1    
   121   62   63 1    
   122   62   64 1    
   123   62  123 1    
   124   63  124 1    
   125   63  125 1    
   126   63  126 1    
   127   64   65 am   BACKBONE|DICT|INTERRES
   128   64  127 1    
   129   65   66 2    
@<TRIPOS>SUBSTRUCTURE
     1 UNK         1 GROUP             0       ****    0 ROOT    
