@<TRIPOS>MOLECULE
3R135
127   129    1
SMALL
USER_CHARGES


@<TRIPOS>ATOM
      1 CA        -83.1301   27.3295  -74.4263 C.3       0 UNK        -0.1998 
      2 C         -82.0469   27.6540  -75.4434 C.2       0 UNK         0.4909 
      3 O         -82.3210   27.6921  -76.6434 O.2       0 UNK        -0.5240 
      4 N         -80.8106   27.8712  -74.9781 N.am      1 UNK        -0.4739 
      5 CA        -79.6378   28.1966  -75.7981 C.3       1 UNK         0.0864 
      6 C6        -78.5585   28.9749  -75.0007 C.3       11 UNK        -0.0881 
      7 S7        -79.1575   30.5565  -74.3081 S.3       11 UNK        -0.2682 
      8 C8        -79.7537   30.0927  -72.6458 C.3       11 UNK         0.0289 
      9 C9        -78.6474   29.5526  -71.7512 C.ar      11 UNK        -0.0687 
     10 C10       -78.4480   28.1728  -71.6279 C.ar      11 UNK        -0.0823 
     11 C11       -77.4234   27.6736  -70.8209 C.ar      11 UNK        -0.0830 
     12 C12       -76.6334   28.5639  -70.0884 C.ar      11 UNK        -0.1021 
     13 C13       -76.8104   29.9446  -70.2147 C.ar      11 UNK        -0.0753 
     14 C14       -77.8227   30.4339  -71.0450 C.ar      11 UNK        -0.0933 
     15 C15       -75.8900   30.9038  -69.4730 C.3       11 UNK         0.0166 
     16 S16       -74.4719   31.4133  -70.4996 S.3       11 UNK        -0.2615 
     17 C17       -73.5944   29.8235  -70.6977 C.3       11 UNK        -0.0865 
     18 CA        -72.2592   29.9295  -71.4879 C.3       10 UNK         0.0862 
     19 C         -71.4913   28.5712  -71.4981 C.2       10 UNK         0.5551 
     20 N         -70.9395   28.1099  -72.6144 N.am      10 UNK        -0.7319 
     21 O         -71.3559   27.9365  -70.4548 O.2       10 UNK        -0.5018 
     22 N         -72.3917   30.5704  -72.8093 N.am      10 UNK        -0.4509 
     23 C         -73.1800   30.1750  -73.8174 C.2       10 UNK         0.4899 
     24 O         -74.0035   29.2629  -73.7382 O.2       10 UNK        -0.4839 
     25 CA        -73.0007   30.8915  -75.1733 C.3       9 UNK         0.0222 
     26 CB        -71.8588   31.9339  -75.2063 C.3       9 UNK        -0.1966 
     27 N         -72.8356   29.9184  -76.2592 N.am      9 UNK        -0.4218 
     28 C         -71.9358   28.9249  -76.3272 C.2       9 UNK         0.5020 
     29 O         -71.0185   28.7771  -75.5155 O.2       9 UNK        -0.5274 
     30 CA        -72.1139   27.9159  -77.4788 C.3       8 UNK         0.0270 
     31 CB        -71.2483   26.6543  -77.2998 C.3       8 UNK        -0.1976 
     32 N         -73.5141   27.5066  -77.6294 N.am      8 UNK        -0.4313 
     33 C         -74.4410   28.1663  -78.3388 C.2       8 UNK         0.5041 
     34 O         -74.2082   29.2394  -78.8974 O.2       8 UNK        -0.5577 
     35 CA        -75.8700   27.5873  -78.3955 C.3       7 UNK         0.0284 
     36 CB        -76.5145   27.7361  -79.7893 C.3       7 UNK        -0.1958 
     37 N         -75.9865   26.2093  -77.9082 N.am      7 UNK        -0.4454 
     38 C         -75.4261   25.0999  -78.4100 C.2       7 UNK         0.5089 
     39 O         -74.7567   25.0765  -79.4434 O.2       7 UNK        -0.5125 
     40 CA        -75.6334   23.8016  -77.6008 C.3       6 UNK         0.0408 
     41 CB        -74.4808   22.7980  -77.8125 C.3       6 UNK        -0.1791 
     42 N         -75.8617   24.0029  -76.1598 N.am      6 UNK        -0.4762 
     43 C         -75.0585   24.6390  -75.2888 C.2       6 UNK         0.5007 
     44 O         -74.0547   25.2655  -75.6336 O.2       6 UNK        -0.5032 
     45 CA        -75.4002   24.5417  -73.7860 C.3       5 UNK         0.0783 
     46 C46       -75.5629   25.9274  -73.1135 C.3       11 UNK        -0.0857 
     47 S47       -75.4647   25.7657  -71.2950 S.3       11 UNK        -0.2512 
     48 C48       -77.1559   26.1764  -70.7503 C.3       11 UNK         0.0225 
     49 N         -76.5596   23.6838  -73.5194 N.am      5 UNK        -0.4615 
     50 C         -76.5109   22.3669  -73.3023 C.2       4 UNK         0.5053 
     51 O         -75.4813   21.6987  -73.3959 O.2       4 UNK        -0.5105 
     52 CA        -77.8235   21.6699  -72.8990 C.3       4 UNK         0.0263 
     53 CB        -78.1397   21.9170  -71.4103 C.3       4 UNK        -0.1981 
     54 N         -78.9825   21.9756  -73.7518 N.am      4 UNK        -0.4224 
     55 C         -79.6238   23.1404  -73.9206 C.2       3 UNK         0.4895 
     56 O         -79.3057   24.2005  -73.3760 O.2       3 UNK        -0.5091 
     57 CA        -80.8285   23.1187  -74.8739 C.3       3 UNK         0.0250 
     58 CB        -82.1171   23.5162  -74.1349 C.3       3 UNK        -0.1996 
     59 N         -80.6112   24.0338  -75.9912 N.am      3 UNK        -0.4254 
     60 C         -79.7080   23.8559  -76.9653 C.2       2 UNK         0.5004 
     61 O         -79.0171   22.8442  -77.0839 O.2       2 UNK        -0.5226 
     62 CA        -79.5312   25.0145  -77.9627 C.3       2 UNK         0.0269 
     63 CB        -80.4279   24.8133  -79.1936 C.3       2 UNK        -0.1926 
     64 N         -79.8124   26.3231  -77.3650 N.am      2 UNK        -0.4687 
     65 C         -79.0738   26.8984  -76.4068 C.2       1 UNK         0.5165 
     66 O         -78.0231   26.4156  -75.9790 O.2       1 UNK        -0.5079 
     67 H67       -83.8780   28.1217  -74.4123 H         1 UNK         0.0900 
     68 H68       -82.7268   27.2247  -73.4192 H         1 UNK         0.0900 
     69 H69       -83.6279   26.3971  -74.6910 H         1 UNK         0.0900 
     70 H70       -80.6347   27.7859  -73.9890 H         1 UNK         0.2959 
     71 H71       -79.9535   28.8341  -76.6275 H         1 UNK         0.1079 
     72 H72       -78.1235   28.3588  -74.2162 H         1 UNK         0.0837 
     73 H73       -77.7238   29.2193  -75.6602 H         1 UNK         0.0837 
     74 H74       -80.1933   30.9763  -72.1807 H         1 UNK         0.0685 
     75 H75       -80.5659   29.3708  -72.7271 H         1 UNK         0.0685 
     76 H76       -79.0733   27.4853  -72.1806 H         1 UNK         0.1434 
     77 H77       -75.8452   28.1792  -69.4556 H         1 UNK         0.1329 
     78 H78       -77.9614   31.5013  -71.1510 H         1 UNK         0.1335 
     79 H79       -76.4472   31.7932  -69.1748 H         1 UNK         0.0680 
     80 H80       -75.5267   30.4485  -68.5503 H         1 UNK         0.0680 
     81 H81       -74.2542   29.1110  -71.1929 H         1 UNK         0.1032 
     82 H82       -73.4128   29.4208  -69.6995 H         1 UNK         0.1032 
     83 H83       -71.6120   30.6007  -70.9224 H         1 UNK         0.0461 
     84 H84       -71.0477   28.5897  -73.5015 H         1 UNK         0.3453 
     85 H85       -70.4363   27.2383  -72.5833 H         1 UNK         0.3453 
     86 H86       -71.7384   31.3186  -72.9883 H         1 UNK         0.2984 
     87 H87       -73.9371   31.4162  -75.3676 H         1 UNK         0.0554 
     88 H88       -71.7961   32.4107  -76.1845 H         1 UNK         0.0847 
     89 H89       -70.8856   31.4867  -74.9993 H         1 UNK         0.0847 
     90 H90       -72.0256   32.7302  -74.4797 H         1 UNK         0.0847 
     91 H91       -73.5346   29.9451  -76.9930 H         1 UNK         0.3141 
     92 H92       -71.7859   28.4140  -78.3936 H         1 UNK         0.0743 
     93 H93       -71.4939   26.1265  -76.3772 H         1 UNK         0.0784 
     94 H94       -71.3835   25.9595  -78.1290 H         1 UNK         0.0784 
     95 H95       -70.1882   26.9079  -77.2597 H         1 UNK         0.0784 
     96 H96       -73.7930   26.6755  -77.1154 H         1 UNK         0.3213 
     97 H97       -76.4539   28.1936  -77.7021 H         1 UNK         0.0855 
     98 H98       -76.5640   28.7838  -80.0884 H         1 UNK         0.0814 
     99 H99       -77.5340   27.3503  -79.7979 H         1 UNK         0.0814 
    100 H100      -75.9478   27.2082  -80.5567 H         1 UNK         0.0814 
    101 H101      -76.5344   26.1076  -77.0551 H         1 UNK         0.3105 
    102 H102      -76.5409   23.3442  -77.9948 H         1 UNK         0.0547 
    103 H103      -74.3860   22.5220  -78.8634 H         1 UNK         0.0837 
    104 H104      -73.5227   23.2129  -77.4974 H         1 UNK         0.0837 
    105 H105      -74.6482   21.8776  -77.2532 H         1 UNK         0.0837 
    106 H106      -76.6856   23.5540  -75.7830 H         1 UNK         0.3020 
    107 H107      -74.5188   24.0731  -73.3415 H         1 UNK         0.1245 
    108 H108      -76.5000   26.4022  -73.4102 H         1 UNK         0.0781 
    109 H109      -74.7659   26.6086  -73.4184 H         1 UNK         0.0781 
    110 H110      -77.2844   25.8439  -69.7195 H         1 UNK         0.0836 
    111 H111      -77.8751   25.6135  -71.3476 H         1 UNK         0.0836 
    112 H112      -77.4654   24.1412  -73.4379 H         1 UNK         0.3022 
    113 H113      -77.6516   20.5987  -73.0178 H         1 UNK         0.0747 
    114 H114      -79.0182   21.3552  -71.0932 H         1 UNK         0.0793 
    115 H115      -77.3080   21.6013  -70.7790 H         1 UNK         0.0793 
    116 H116      -78.3219   22.9710  -71.1984 H         1 UNK         0.0793 
    117 H117      -79.3133   21.1902  -74.2960 H         1 UNK         0.3047 
    118 H118      -80.9596   22.1117  -75.2759 H         1 UNK         0.0822 
    119 H119      -82.9806   23.4962  -74.8001 H         1 UNK         0.0807 
    120 H120      -82.0456   24.5162  -73.7053 H         1 UNK         0.0807 
    121 H121      -82.3233   22.8260  -73.3158 H         1 UNK         0.0807 
    122 H122      -81.1050   24.9125  -75.9616 H         1 UNK         0.2946 
    123 H123      -78.4926   25.0050  -78.2948 H         1 UNK         0.1144 
    124 H124      -80.2283   23.8518  -79.6689 H         1 UNK         0.0793 
    125 H125      -80.2516   25.5859  -79.9424 H         1 UNK         0.0793 
    126 H126      -81.4865   24.8348  -78.9311 H         1 UNK         0.0793 
    127 H127      -80.6938   26.7640  -77.6069 H         1 UNK         0.2896 
@<TRIPOS>BOND
     1    1    2 1    
     2    1   67 1    
     3    1   68 1    
     4    1   69 1    
     5    2    3 2    
     6    2    4 am   BACKBONE|DICT|INTERRES
     7    4    5 1    
     8    4   70 1    
     9    5    6 1    
    10    5   65 1    
    11    5   71 1    
    12    6    7 1    
    13    6   72 1    
    14    6   73 1    
    15    7    8 1    
    16    8    9 1    
    17    8   74 1    
    18    8   75 1    
    19    9   10 ar   
    20    9   14 ar   
    21   10   11 ar   
    22   10   76 1    
    23   11   12 ar   
    24   11   48 1    
    25   12   13 ar   
    26   12   77 1    
    27   13   14 ar   
    28   13   15 1    
    29   14   78 1    
    30   15   16 1    
    31   15   79 1    
    32   15   80 1    
    33   16   17 1    
    34   17   18 1    
    35   17   81 1    
    36   17   82 1    
    37   18   19 1    
    38   18   22 1    
    39   18   83 1    
    40   19   20 am   BACKBONE|DICT|INTERRES
    41   19   21 2    
    42   20   84 1    
    43   20   85 1    
    44   22   23 am   BACKBONE|DICT|INTERRES
    45   22   86 1    
    46   23   24 2    
    47   23   25 1    
    48   25   26 1    
    49   25   27 1    
    50   25   87 1    
    51   26   88 1    
    52   26   89 1    
    53   26   90 1    
    54   27   28 am   BACKBONE|DICT|INTERRES
    55   27   91 1    
    56   28   29 2    
    57   28   30 1    
    58   30   31 1    
    59   30   32 1    
    60   30   92 1    
    61   31   93 1    
    62   31   94 1    
    63   31   95 1    
    64   32   33 am   BACKBONE|DICT|INTERRES
    65   32   96 1    
    66   33   34 2    
    67   33   35 1    
    68   35   36 1    
    69   35   37 1    
    70   35   97 1    
    71   36   98 1    
    72   36   99 1    
    73   36  100 1    
    74   37   38 am   BACKBONE|DICT|INTERRES
    75   37  101 1    
    76   38   39 2    
    77   38   40 1    
    78   40   41 1    
    79   40   42 1    
    80   40  102 1    
    81   41  103 1    
    82   41  104 1    
    83   41  105 1    
    84   42   43 am   BACKBONE|DICT|INTERRES
    85   42  106 1    
    86   43   44 2    
    87   43   45 1    
    88   45   46 1    
    89   45   49 1    
    90   45  107 1    
    91   46   47 1    
    92   46  108 1    
    93   46  109 1    
    94   47   48 1    
    95   48  110 1    
    96   48  111 1    
    97   49   50 am   BACKBONE|DICT|INTERRES
    98   49  112 1    
    99   50   51 2    
   100   50   52 1    
   101   52   53 1    
   102   52   54 1    
   103   52  113 1    
   104   53  114 1    
   105   53  115 1    
   106   53  116 1    
   107   54   55 am   BACKBONE|DICT|INTERRES
   108   54  117 1    
   109   55   56 2    
   110   55   57 1    
   111   57   58 1    
   112   57   59 1    
   113   57  118 1    
   114   58  119 1    
   115   58  120 1    
   116   58  121 1    
   117   59   60 am   BACKBONE|DICT|INTERRES
   118   59  122 1    
   119   60   61 2    
   120   60   62 1    
   121   62   63 1    
   122   62   64 1    
   123   62  123 1    
   124   63  124 1    
   125   63  125 1    
   126   63  126 1    
   127   64   65 am   BACKBONE|DICT|INTERRES
   128   64  127 1    
   129   65   66 2    
@<TRIPOS>SUBSTRUCTURE
     1 UNK         1 GROUP             0       ****    0 ROOT    
