@<TRIPOS>MOLECULE
3R135
127   129    1
SMALL
USER_CHARGES


@<TRIPOS>ATOM
      1 CA        -82.5122   26.8955  -71.5150 C.3       0 UNK        -0.1998 
      2 C         -82.3856   28.0067  -72.5460 C.2       0 UNK         0.4909 
      3 O         -83.3632   28.3281  -73.2219 O.2       0 UNK        -0.5240 
      4 N         -81.1892   28.5950  -72.6715 N.am      1 UNK        -0.4739 
      5 CA        -80.8700   29.6292  -73.6627 C.3       1 UNK         0.0864 
      6 C6        -79.5880   30.4077  -73.2790 C.3       11 UNK        -0.0881 
      7 S7        -79.8479   31.6841  -71.9995 S.3       11 UNK        -0.2682 
      8 C8        -79.8465   30.7638  -70.4227 C.3       11 UNK         0.0289 
      9 C9        -78.7454   29.7158  -70.3126 C.ar      11 UNK        -0.0687 
     10 C10       -79.0877   28.3798  -70.0859 C.ar      11 UNK        -0.0823 
     11 C11       -78.1013   27.3965  -69.9941 C.ar      11 UNK        -0.0830 
     12 C12       -76.7560   27.7662  -70.0940 C.ar      11 UNK        -0.1021 
     13 C13       -76.3959   29.0977  -70.3223 C.ar      11 UNK        -0.0753 
     14 C14       -77.3960   30.0707  -70.4276 C.ar      11 UNK        -0.0933 
     15 C15       -74.9235   29.4782  -70.4188 C.3       11 UNK         0.0166 
     16 S16       -74.1244   28.8208  -71.9210 S.3       11 UNK        -0.2615 
     17 C17       -74.6555   30.0267  -73.1832 C.3       11 UNK        -0.0865 
     18 CA        -74.7691   29.4023  -74.5999 C.3       10 UNK         0.0862 
     19 C         -76.0585   28.5528  -74.7288 C.2       10 UNK         0.5551 
     20 N         -75.9392   27.2373  -74.7788 N.am      10 UNK        -0.7319 
     21 O         -77.1592   29.0873  -74.8074 O.2       10 UNK        -0.5018 
     22 N         -74.7081   30.4561  -75.6259 N.am      10 UNK        -0.4509 
     23 C         -74.6863   30.3309  -76.9635 C.2       10 UNK         0.4899 
     24 O         -74.8100   31.3209  -77.6841 O.2       10 UNK        -0.4839 
     25 CA        -74.4604   28.9458  -77.6226 C.3       9 UNK         0.0222 
     26 CB        -74.5963   28.9875  -79.1601 C.3       9 UNK        -0.1966 
     27 N         -73.1796   28.3336  -77.2507 N.am      9 UNK        -0.4218 
     28 C         -71.9488   28.8518  -77.4095 C.2       9 UNK         0.5020 
     29 O         -71.7192   29.9654  -77.8828 O.2       9 UNK        -0.5274 
     30 CA        -70.7533   27.9805  -76.9729 C.3       8 UNK         0.0270 
     31 CB        -70.2617   28.4139  -75.5816 C.3       8 UNK        -0.1976 
     32 N         -71.0473   26.5462  -76.9462 N.am      8 UNK        -0.4313 
     33 C         -71.3893   25.7968  -78.0035 C.2       8 UNK         0.5041 
     34 O         -71.3507   26.2007  -79.1663 O.2       8 UNK        -0.5577 
     35 CA        -71.8850   24.3638  -77.7228 C.3       7 UNK         0.0284 
     36 CB        -70.8657   23.3316  -78.2338 C.3       7 UNK        -0.1958 
     37 N         -72.1971   24.0694  -76.3168 N.am      7 UNK        -0.4454 
     38 C         -73.1340   24.6734  -75.5740 C.2       7 UNK         0.5089 
     39 O         -73.7984   25.6464  -75.9431 O.2       7 UNK        -0.5125 
     40 CA        -73.3055   24.1534  -74.1471 C.3       6 UNK         0.0408 
     41 CB        -72.5847   25.0885  -73.1556 C.3       6 UNK        -0.1791 
     42 N         -74.7324   24.0882  -73.8526 N.am      6 UNK        -0.4762 
     43 C         -75.2833   23.4775  -72.7971 C.2       6 UNK         0.5007 
     44 O         -74.6412   22.8484  -71.9548 O.2       6 UNK        -0.5032 
     45 CA        -76.8108   23.6098  -72.6442 C.3       5 UNK         0.0783 
     46 C46       -77.1499   25.0018  -72.0634 C.3       11 UNK        -0.0857 
     47 S47       -78.8336   25.1094  -71.3797 S.3       11 UNK        -0.2512 
     48 C48       -78.4995   25.9401  -69.7895 C.3       11 UNK         0.0225 
     49 N         -77.5016   23.3422  -73.9107 N.am      5 UNK        -0.4615 
     50 C         -77.5810   22.1270  -74.4767 C.2       4 UNK         0.5053 
     51 O         -77.1674   21.0989  -73.9398 O.2       4 UNK        -0.5105 
     52 CA        -78.2167   22.0246  -75.8776 C.3       4 UNK         0.0263 
     53 CB        -79.7078   21.6684  -75.7647 C.3       4 UNK        -0.1981 
     54 N         -78.0754   23.2470  -76.6690 N.am      4 UNK        -0.4224 
     55 C         -76.9144   23.7721  -77.0849 C.2       3 UNK         0.4895 
     56 O         -75.8347   23.1900  -76.9861 O.2       3 UNK        -0.5091 
     57 CA        -76.9496   25.1956  -77.6807 C.3       3 UNK         0.0250 
     58 CB        -76.5742   25.1719  -79.1713 C.3       3 UNK        -0.1996 
     59 N         -78.2182   25.9233  -77.5154 N.am      3 UNK        -0.4254 
     60 C         -78.7956   26.2465  -76.3492 C.2       2 UNK         0.5004 
     61 O         -78.3638   25.8892  -75.2483 O.2       2 UNK        -0.5226 
     62 CA        -80.0976   27.0468  -76.4335 C.3       2 UNK         0.0269 
     63 CB        -81.2958   26.1101  -76.6648 C.3       2 UNK        -0.1926 
     64 N         -80.2942   27.7740  -75.1832 N.am      2 UNK        -0.4687 
     65 C         -80.7451   29.0312  -75.0817 C.2       1 UNK         0.5165 
     66 O         -81.0786   29.7143  -76.0520 O.2       1 UNK        -0.5079 
     67 H67       -83.0731   27.2472  -70.6496 H         1 UNK         0.0900 
     68 H68       -81.5399   26.5420  -71.1748 H         1 UNK         0.0900 
     69 H69       -83.0429   26.0453  -71.9428 H         1 UNK         0.0900 
     70 H70       -80.4153   28.2910  -72.0986 H         1 UNK         0.2959 
     71 H71       -81.7020   30.3363  -73.7001 H         1 UNK         0.1079 
     72 H72       -78.7962   29.7245  -72.9723 H         1 UNK         0.0837 
     73 H73       -79.1888   30.9391  -74.1457 H         1 UNK         0.0837 
     74 H74       -80.8291   30.3066  -70.2963 H         1 UNK         0.0685 
     75 H75       -79.7381   31.4757  -69.6036 H         1 UNK         0.0685 
     76 H76       -80.1262   28.1007  -69.9776 H         1 UNK         0.1434 
     77 H77       -75.9792   27.0206  -70.0019 H         1 UNK         0.1329 
     78 H78       -77.1293   31.1045  -70.5994 H         1 UNK         0.1335 
     79 H79       -74.7937   30.5609  -70.3811 H         1 UNK         0.0680 
     80 H80       -74.4016   29.0804  -69.5473 H         1 UNK         0.0680 
     81 H81       -73.9113   30.8248  -73.1829 H         1 UNK         0.1032 
     82 H82       -75.5962   30.4950  -72.8848 H         1 UNK         0.1032 
     83 H83       -73.9015   28.7581  -74.7476 H         1 UNK         0.0461 
     84 H84       -76.7961   26.7000  -74.8741 H         1 UNK         0.3453 
     85 H85       -75.0362   26.7865  -74.8412 H         1 UNK         0.3453 
     86 H86       -74.8444   31.3886  -75.2671 H         1 UNK         0.2984 
     87 H87       -75.2432   28.2739  -77.2773 H         1 UNK         0.0554 
     88 H88       -74.4767   27.9947  -79.5943 H         1 UNK         0.0847 
     89 H89       -73.8542   29.6426  -79.6177 H         1 UNK         0.0847 
     90 H90       -75.5803   29.3537  -79.4550 H         1 UNK         0.0847 
     91 H91       -73.2499   27.4078  -76.8394 H         1 UNK         0.3141 
     92 H92       -69.9484   28.1425  -77.6928 H         1 UNK         0.0743 
     93 H93       -71.0242   28.2591  -74.8166 H         1 UNK         0.0784 
     94 H94       -69.3690   27.8630  -75.2849 H         1 UNK         0.0784 
     95 H95       -70.0031   29.4738  -75.5724 H         1 UNK         0.0784 
     96 H96       -71.0967   26.1118  -76.0370 H         1 UNK         0.3213 
     97 H97       -72.8111   24.2391  -78.2887 H         1 UNK         0.0855 
     98 H98       -69.9245   23.3885  -77.6857 H         1 UNK         0.0814 
     99 H99       -70.6382   23.4943  -79.2884 H         1 UNK         0.0814 
    100 H100      -71.2488   22.3150  -78.1432 H         1 UNK         0.0814 
    101 H101      -71.6888   23.2996  -75.9048 H         1 UNK         0.3105 
    102 H102      -72.8859   23.1478  -74.0758 H         1 UNK         0.0547 
    103 H103      -71.5247   25.1759  -73.3969 H         1 UNK         0.0837 
    104 H104      -73.0074   26.0941  -73.1704 H         1 UNK         0.0837 
    105 H105      -72.6478   24.7179  -72.1327 H         1 UNK         0.0837 
    106 H106      -75.3283   24.5334  -74.5380 H         1 UNK         0.3020 
    107 H107      -77.1226   22.8519  -71.9215 H         1 UNK         0.1245 
    108 H108      -76.4450   25.2418  -71.2675 H         1 UNK         0.0781 
    109 H109      -77.0322   25.7855  -72.8110 H         1 UNK         0.0781 
    110 H110      -79.3957   25.8852  -69.1696 H         1 UNK         0.0836 
    111 H111      -77.7237   25.4013  -69.2431 H         1 UNK         0.0836 
    112 H112      -77.8864   24.1477  -74.3950 H         1 UNK         0.3022 
    113 H113      -77.7080   21.2196  -76.4121 H         1 UNK         0.0747 
    114 H114      -80.1561   21.5173  -76.7469 H         1 UNK         0.0793 
    115 H115      -79.8461   20.7443  -75.2016 H         1 UNK         0.0793 
    116 H116      -80.2719   22.4494  -75.2527 H         1 UNK         0.0793 
    117 H117      -78.9084   23.8023  -76.7934 H         1 UNK         0.3047 
    118 H118      -76.1823   25.7673  -77.1568 H         1 UNK         0.0822 
    119 H119      -77.3119   24.6304  -79.7646 H         1 UNK         0.0807 
    120 H120      -75.6100   24.6843  -79.3236 H         1 UNK         0.0807 
    121 H121      -76.4884   26.1806  -79.5757 H         1 UNK         0.0807 
    122 H122      -78.6617   26.2294  -78.3699 H         1 UNK         0.2946 
    123 H123      -80.0123   27.7489  -77.2663 H         1 UNK         0.1144 
    124 H124      -81.1915   25.5563  -77.5987 H         1 UNK         0.0793 
    125 H125      -82.2285   26.6714  -76.7255 H         1 UNK         0.0793 
    126 H126      -81.3984   25.3812  -75.8595 H         1 UNK         0.0793 
    127 H127      -79.9593   27.2979  -74.3559 H         1 UNK         0.2896 
@<TRIPOS>BOND
     1    1    2 1    
     2    1   67 1    
     3    1   68 1    
     4    1   69 1    
     5    2    3 2    
     6    2    4 am   BACKBONE|DICT|INTERRES
     7    4    5 1    
     8    4   70 1    
     9    5    6 1    
    10    5   65 1    
    11    5   71 1    
    12    6    7 1    
    13    6   72 1    
    14    6   73 1    
    15    7    8 1    
    16    8    9 1    
    17    8   74 1    
    18    8   75 1    
    19    9   10 ar   
    20    9   14 ar   
    21   10   11 ar   
    22   10   76 1    
    23   11   12 ar   
    24   11   48 1    
    25   12   13 ar   
    26   12   77 1    
    27   13   14 ar   
    28   13   15 1    
    29   14   78 1    
    30   15   16 1    
    31   15   79 1    
    32   15   80 1    
    33   16   17 1    
    34   17   18 1    
    35   17   81 1    
    36   17   82 1    
    37   18   19 1    
    38   18   22 1    
    39   18   83 1    
    40   19   20 am   BACKBONE|DICT|INTERRES
    41   19   21 2    
    42   20   84 1    
    43   20   85 1    
    44   22   23 am   BACKBONE|DICT|INTERRES
    45   22   86 1    
    46   23   24 2    
    47   23   25 1    
    48   25   26 1    
    49   25   27 1    
    50   25   87 1    
    51   26   88 1    
    52   26   89 1    
    53   26   90 1    
    54   27   28 am   BACKBONE|DICT|INTERRES
    55   27   91 1    
    56   28   29 2    
    57   28   30 1    
    58   30   31 1    
    59   30   32 1    
    60   30   92 1    
    61   31   93 1    
    62   31   94 1    
    63   31   95 1    
    64   32   33 am   BACKBONE|DICT|INTERRES
    65   32   96 1    
    66   33   34 2    
    67   33   35 1    
    68   35   36 1    
    69   35   37 1    
    70   35   97 1    
    71   36   98 1    
    72   36   99 1    
    73   36  100 1    
    74   37   38 am   BACKBONE|DICT|INTERRES
    75   37  101 1    
    76   38   39 2    
    77   38   40 1    
    78   40   41 1    
    79   40   42 1    
    80   40  102 1    
    81   41  103 1    
    82   41  104 1    
    83   41  105 1    
    84   42   43 am   BACKBONE|DICT|INTERRES
    85   42  106 1    
    86   43   44 2    
    87   43   45 1    
    88   45   46 1    
    89   45   49 1    
    90   45  107 1    
    91   46   47 1    
    92   46  108 1    
    93   46  109 1    
    94   47   48 1    
    95   48  110 1    
    96   48  111 1    
    97   49   50 am   BACKBONE|DICT|INTERRES
    98   49  112 1    
    99   50   51 2    
   100   50   52 1    
   101   52   53 1    
   102   52   54 1    
   103   52  113 1    
   104   53  114 1    
   105   53  115 1    
   106   53  116 1    
   107   54   55 am   BACKBONE|DICT|INTERRES
   108   54  117 1    
   109   55   56 2    
   110   55   57 1    
   111   57   58 1    
   112   57   59 1    
   113   57  118 1    
   114   58  119 1    
   115   58  120 1    
   116   58  121 1    
   117   59   60 am   BACKBONE|DICT|INTERRES
   118   59  122 1    
   119   60   61 2    
   120   60   62 1    
   121   62   63 1    
   122   62   64 1    
   123   62  123 1    
   124   63  124 1    
   125   63  125 1    
   126   63  126 1    
   127   64   65 am   BACKBONE|DICT|INTERRES
   128   64  127 1    
   129   65   66 2    
@<TRIPOS>SUBSTRUCTURE
     1 UNK         1 GROUP             0       ****    0 ROOT    
