@<TRIPOS>MOLECULE
3R135
127   129    1
SMALL
USER_CHARGES


@<TRIPOS>ATOM
      1 CA        -83.1910   24.3812  -69.6569 C.3       0 UNK        -0.1998 
      2 C         -83.3172   25.3845  -70.7934 C.2       0 UNK         0.4909 
      3 O         -84.3961   25.5232  -71.3704 O.2       0 UNK        -0.5240 
      4 N         -82.2225   26.0860  -71.1186 N.am      1 UNK        -0.4739 
      5 CA        -82.1549   27.0764  -72.2035 C.3       1 UNK         0.0864 
      6 C6        -80.9230   28.0017  -72.0356 C.3       11 UNK        -0.0881 
      7 S7        -81.2293   29.6951  -72.6398 S.3       11 UNK        -0.2682 
      8 C8        -79.8885   30.6107  -71.8148 C.3       11 UNK         0.0289 
      9 C9        -78.5282   30.2222  -72.3734 C.ar      11 UNK        -0.0687 
     10 C10       -77.7723   29.2219  -71.7570 C.ar      11 UNK        -0.0823 
     11 C11       -76.5478   28.8247  -72.2992 C.ar      11 UNK        -0.0830 
     12 C12       -76.0676   29.4627  -73.4473 C.ar      11 UNK        -0.1021 
     13 C13       -76.7933   30.4954  -74.0568 C.ar      11 UNK        -0.0753 
     14 C14       -78.0303   30.8572  -73.5145 C.ar      11 UNK        -0.0933 
     15 C15       -76.3075   31.2394  -75.3052 C.3       11 UNK         0.0166 
     16 S16       -74.5640   30.9760  -75.7885 S.3       11 UNK        -0.2615 
     17 C17       -73.6748   31.8089  -74.4376 C.3       11 UNK        -0.0865 
     18 CA        -72.1558   31.4636  -74.4276 C.3       10 UNK         0.0862 
     19 C         -71.3441   32.4056  -73.4822 C.2       10 UNK         0.5551 
     20 N         -70.2592   31.9513  -72.8656 N.am      10 UNK        -0.7319 
     21 O         -71.6781   33.5781  -73.3277 O.2       10 UNK        -0.5018 
     22 N         -71.8540   30.0245  -74.2536 N.am      10 UNK        -0.4509 
     23 C         -72.1456   29.2871  -73.1737 C.2       10 UNK         0.4899 
     24 O         -72.8912   29.6558  -72.2662 O.2       10 UNK        -0.4839 
     25 CA        -71.4139   27.9425  -73.0577 C.3       9 UNK         0.0222 
     26 CB        -71.6183   27.2597  -71.6889 C.3       9 UNK        -0.1966 
     27 N         -71.7705   27.0012  -74.1234 N.am      9 UNK        -0.4218 
     28 C         -70.8859   26.1506  -74.6653 C.2       9 UNK         0.5020 
     29 O         -69.6663   26.2498  -74.5178 O.2       9 UNK        -0.5274 
     30 CA        -71.4256   24.9438  -75.4436 C.3       8 UNK         0.0270 
     31 CB        -71.9753   23.8918  -74.4651 C.3       8 UNK        -0.1976 
     32 N         -72.4644   25.2877  -76.4143 N.am      8 UNK        -0.4313 
     33 C         -72.2968   25.2500  -77.7442 C.2       8 UNK         0.5041 
     34 O         -71.2085   25.0545  -78.2884 O.2       8 UNK        -0.5577 
     35 CA        -73.5423   25.4092  -78.6386 C.3       7 UNK         0.0284 
     36 CB        -73.9547   24.0461  -79.2195 C.3       7 UNK        -0.1958 
     37 N         -74.6955   25.9900  -77.9534 N.am      7 UNK        -0.4454 
     38 C         -74.7986   27.2737  -77.5933 C.2       7 UNK         0.5089 
     39 O         -73.9558   28.1287  -77.8629 O.2       7 UNK        -0.5125 
     40 CA        -76.0322   27.6516  -76.7570 C.3       6 UNK         0.0408 
     41 CB        -77.2135   28.0345  -77.6601 C.3       6 UNK        -0.1791 
     42 N         -76.4459   26.6183  -75.8036 N.am      6 UNK        -0.4762 
     43 C         -75.6827   26.1352  -74.8103 C.2       6 UNK         0.5007 
     44 O         -74.5066   26.4531  -74.6257 O.2       6 UNK        -0.5032 
     45 CA        -76.3433   25.0867  -73.9002 C.3       5 UNK         0.0783 
     46 C46       -77.3586   25.7472  -72.9290 C.3       11 UNK        -0.0857 
     47 S47       -76.6414   26.1839  -71.3092 S.3       11 UNK        -0.2512 
     48 C48       -75.7202   27.7281  -71.6384 C.3       11 UNK         0.0225 
     49 N         -76.9619   24.0478  -74.7265 N.am      5 UNK        -0.4615 
     50 C         -76.2766   23.0976  -75.3805 C.2       4 UNK         0.5053 
     51 O         -75.0665   22.9223  -75.2519 O.2       4 UNK        -0.5105 
     52 CA        -77.0561   22.2045  -76.3643 C.3       4 UNK         0.0263 
     53 CB        -77.5104   20.9112  -75.6694 C.3       4 UNK        -0.1981 
     54 N         -78.2191   22.8678  -76.9579 N.am      4 UNK        -0.4224 
     55 C         -78.1677   23.9498  -77.7486 C.2       3 UNK         0.4895 
     56 O         -77.1191   24.4546  -78.1471 O.2       3 UNK        -0.5091 
     57 CA        -79.5089   24.6180  -78.1063 C.3       3 UNK         0.0250 
     58 CB        -80.0031   24.1279  -79.4762 C.3       3 UNK        -0.1996 
     59 N         -80.5629   24.4158  -77.1030 N.am      3 UNK        -0.4254 
     60 C         -80.4883   24.8001  -75.8203 C.2       2 UNK         0.5004 
     61 O         -79.5099   25.3751  -75.3344 O.2       2 UNK        -0.5226 
     62 CA        -81.6618   24.3780  -74.9225 C.3       2 UNK         0.0269 
     63 CB        -81.5278   22.8939  -74.5390 C.3       2 UNK        -0.1926 
     64 N         -81.7243   25.1671  -73.6929 N.am      2 UNK        -0.4687 
     65 C         -82.1878   26.4216  -73.6048 C.2       1 UNK         0.5165 
     66 O         -82.6528   27.0426  -74.5622 O.2       1 UNK        -0.5079 
     67 H67       -83.4218   23.3782  -70.0150 H         1 UNK         0.0900 
     68 H68       -83.8914   24.6280  -68.8595 H         1 UNK         0.0900 
     69 H69       -82.1868   24.3675  -69.2335 H         1 UNK         0.0900 
     70 H70       -81.3669   25.9342  -70.6031 H         1 UNK         0.2959 
     71 H71       -83.0581   27.6864  -72.1237 H         1 UNK         0.1079 
     72 H72       -80.0392   27.5910  -72.5284 H         1 UNK         0.0837 
     73 H73       -80.6623   28.0855  -70.9793 H         1 UNK         0.0837 
     74 H74       -80.0531   31.6801  -71.9551 H         1 UNK         0.0685 
     75 H75       -79.9285   30.4358  -70.7385 H         1 UNK         0.0685 
     76 H76       -78.1463   28.7346  -70.8672 H         1 UNK         0.1434 
     77 H77       -75.1174   29.1517  -73.8564 H         1 UNK         0.1329 
     78 H78       -78.6149   31.6351  -73.9868 H         1 UNK         0.1335 
     79 H79       -76.9360   30.9378  -76.1441 H         1 UNK         0.0680 
     80 H80       -76.4657   32.3108  -75.1721 H         1 UNK         0.0680 
     81 H81       -74.1355   31.5662  -73.4796 H         1 UNK         0.1032 
     82 H82       -73.8262   32.8808  -74.5765 H         1 UNK         0.1032 
     83 H83       -71.7756   31.7063  -75.4206 H         1 UNK         0.0461 
     84 H84       -69.9538   31.0010  -72.9960 H         1 UNK         0.3453 
     85 H85       -69.7367   32.5721  -72.2676 H         1 UNK         0.3453 
     86 H86       -71.2468   29.6233  -74.9539 H         1 UNK         0.2984 
     87 H87       -70.3544   28.1972  -73.1295 H         1 UNK         0.0554 
     88 H88       -71.3752   27.9372  -70.8693 H         1 UNK         0.0847 
     89 H89       -72.6483   26.9325  -71.5494 H         1 UNK         0.0847 
     90 H90       -70.9752   26.3860  -71.5823 H         1 UNK         0.0847 
     91 H91       -72.7655   26.8783  -74.3108 H         1 UNK         0.3141 
     92 H92       -70.5742   24.4879  -75.9537 H         1 UNK         0.0743 
     93 H93       -71.2245   23.6140  -73.7241 H         1 UNK         0.0784 
     94 H94       -72.8498   24.2553  -73.9242 H         1 UNK         0.0784 
     95 H95       -72.2648   22.9806  -74.9890 H         1 UNK         0.0784 
     96 H96       -73.3780   25.5168  -76.0389 H         1 UNK         0.3213 
     97 H97       -73.2683   26.0668  -79.4665 H         1 UNK         0.0855 
     98 H98       -73.1316   23.5875  -79.7691 H         1 UNK         0.0814 
     99 H99       -74.7905   24.1464  -79.9124 H         1 UNK         0.0814 
    100 H100      -74.2534   23.3496  -78.4346 H         1 UNK         0.0814 
    101 H101      -75.4852   25.3738  -77.7733 H         1 UNK         0.3105 
    102 H102      -75.7681   28.5223  -76.1642 H         1 UNK         0.0547 
    103 H103      -76.9517   28.8794  -78.2982 H         1 UNK         0.0837 
    104 H104      -77.5037   27.2129  -78.3144 H         1 UNK         0.0837 
    105 H105      -78.0849   28.3289  -77.0748 H         1 UNK         0.0837 
    106 H106      -77.3984   26.2834  -75.8780 H         1 UNK         0.3020 
    107 H107      -75.5523   24.6120  -73.3143 H         1 UNK         0.1245 
    108 H108      -78.1652   25.0453  -72.7105 H         1 UNK         0.0781 
    109 H109      -77.8582   26.6139  -73.3668 H         1 UNK         0.0781 
    110 H110      -74.8456   27.4908  -72.2428 H         1 UNK         0.0836 
    111 H111      -75.3315   28.1107  -70.6939 H         1 UNK         0.0836 
    112 H112      -77.9481   24.1748  -74.9253 H         1 UNK         0.3022 
    113 H113      -76.3745   21.9395  -77.1755 H         1 UNK         0.0747 
    114 H114      -77.9905   20.2298  -76.3721 H         1 UNK         0.0793 
    115 H115      -76.6597   20.3815  -75.2380 H         1 UNK         0.0793 
    116 H116      -78.2137   21.1119  -74.8600 H         1 UNK         0.0793 
    117 H117      -79.1269   22.5146  -76.6951 H         1 UNK         0.3047 
    118 H118      -79.3284   25.6921  -78.1732 H         1 UNK         0.0822 
    119 H119      -80.8995   24.6629  -79.7903 H         1 UNK         0.0807 
    120 H120      -80.2326   23.0616  -79.4665 H         1 UNK         0.0807 
    121 H121      -79.2459   24.2912  -80.2447 H         1 UNK         0.0807 
    122 H122      -81.3940   23.9356  -77.4184 H         1 UNK         0.2946 
    123 H123      -82.5926   24.5219  -75.4764 H         1 UNK         0.1144 
    124 H124      -82.3557   22.5729  -73.9061 H         1 UNK         0.0793 
    125 H125      -80.5997   22.6969  -74.0003 H         1 UNK         0.0793 
    126 H126      -81.5355   22.2531  -75.4216 H         1 UNK         0.0793 
    127 H127      -81.3470   24.7416  -72.8596 H         1 UNK         0.2896 
@<TRIPOS>BOND
     1    1    2 1    
     2    1   67 1    
     3    1   68 1    
     4    1   69 1    
     5    2    3 2    
     6    2    4 am   BACKBONE|DICT|INTERRES
     7    4    5 1    
     8    4   70 1    
     9    5    6 1    
    10    5   65 1    
    11    5   71 1    
    12    6    7 1    
    13    6   72 1    
    14    6   73 1    
    15    7    8 1    
    16    8    9 1    
    17    8   74 1    
    18    8   75 1    
    19    9   10 ar   
    20    9   14 ar   
    21   10   11 ar   
    22   10   76 1    
    23   11   12 ar   
    24   11   48 1    
    25   12   13 ar   
    26   12   77 1    
    27   13   14 ar   
    28   13   15 1    
    29   14   78 1    
    30   15   16 1    
    31   15   79 1    
    32   15   80 1    
    33   16   17 1    
    34   17   18 1    
    35   17   81 1    
    36   17   82 1    
    37   18   19 1    
    38   18   22 1    
    39   18   83 1    
    40   19   20 am   BACKBONE|DICT|INTERRES
    41   19   21 2    
    42   20   84 1    
    43   20   85 1    
    44   22   23 am   BACKBONE|DICT|INTERRES
    45   22   86 1    
    46   23   24 2    
    47   23   25 1    
    48   25   26 1    
    49   25   27 1    
    50   25   87 1    
    51   26   88 1    
    52   26   89 1    
    53   26   90 1    
    54   27   28 am   BACKBONE|DICT|INTERRES
    55   27   91 1    
    56   28   29 2    
    57   28   30 1    
    58   30   31 1    
    59   30   32 1    
    60   30   92 1    
    61   31   93 1    
    62   31   94 1    
    63   31   95 1    
    64   32   33 am   BACKBONE|DICT|INTERRES
    65   32   96 1    
    66   33   34 2    
    67   33   35 1    
    68   35   36 1    
    69   35   37 1    
    70   35   97 1    
    71   36   98 1    
    72   36   99 1    
    73   36  100 1    
    74   37   38 am   BACKBONE|DICT|INTERRES
    75   37  101 1    
    76   38   39 2    
    77   38   40 1    
    78   40   41 1    
    79   40   42 1    
    80   40  102 1    
    81   41  103 1    
    82   41  104 1    
    83   41  105 1    
    84   42   43 am   BACKBONE|DICT|INTERRES
    85   42  106 1    
    86   43   44 2    
    87   43   45 1    
    88   45   46 1    
    89   45   49 1    
    90   45  107 1    
    91   46   47 1    
    92   46  108 1    
    93   46  109 1    
    94   47   48 1    
    95   48  110 1    
    96   48  111 1    
    97   49   50 am   BACKBONE|DICT|INTERRES
    98   49  112 1    
    99   50   51 2    
   100   50   52 1    
   101   52   53 1    
   102   52   54 1    
   103   52  113 1    
   104   53  114 1    
   105   53  115 1    
   106   53  116 1    
   107   54   55 am   BACKBONE|DICT|INTERRES
   108   54  117 1    
   109   55   56 2    
   110   55   57 1    
   111   57   58 1    
   112   57   59 1    
   113   57  118 1    
   114   58  119 1    
   115   58  120 1    
   116   58  121 1    
   117   59   60 am   BACKBONE|DICT|INTERRES
   118   59  122 1    
   119   60   61 2    
   120   60   62 1    
   121   62   63 1    
   122   62   64 1    
   123   62  123 1    
   124   63  124 1    
   125   63  125 1    
   126   63  126 1    
   127   64   65 am   BACKBONE|DICT|INTERRES
   128   64  127 1    
   129   65   66 2    
@<TRIPOS>SUBSTRUCTURE
     1 UNK         1 GROUP             0       ****    0 ROOT    
