@<TRIPOS>MOLECULE
3R135
127   129    1
SMALL
USER_CHARGES


@<TRIPOS>ATOM
      1 CA        -80.2750   28.6532  -78.2190 C.3       0 UNK        -0.1998 
      2 C         -80.6814   28.6015  -76.7537 C.2       0 UNK         0.4909 
      3 O         -81.8610   28.7710  -76.4450 O.2       0 UNK        -0.5240 
      4 N         -79.7082   28.3703  -75.8602 N.am      1 UNK        -0.4739 
      5 CA        -79.8550   28.3034  -74.3960 C.3       1 UNK         0.0864 
      6 C6        -80.2369   29.6616  -73.7446 C.3       11 UNK        -0.0881 
      7 S7        -79.1814   31.1015  -74.1604 S.3       11 UNK        -0.2682 
      8 C8        -77.4888   30.4435  -74.3768 C.3       11 UNK         0.0289 
      9 C9        -76.9157   29.7890  -73.1246 C.ar      11 UNK        -0.0687 
     10 C10       -76.2812   28.5452  -73.2151 C.ar      11 UNK        -0.0823 
     11 C11       -75.7042   27.9548  -72.0874 C.ar      11 UNK        -0.0830 
     12 C12       -75.7707   28.6149  -70.8575 C.ar      11 UNK        -0.1021 
     13 C13       -76.3779   29.8706  -70.7583 C.ar      11 UNK        -0.0753 
     14 C14       -76.9502   30.4502  -71.8934 C.ar      11 UNK        -0.0933 
     15 C15       -76.4055   30.6157  -69.4326 C.3       11 UNK         0.0166 
     16 S16       -75.0707   31.8531  -69.3276 S.3       11 UNK        -0.2615 
     17 C17       -73.5963   30.7932  -69.1242 C.3       11 UNK        -0.0865 
     18 CA        -72.5682   30.8993  -70.2840 C.3       10 UNK         0.0862 
     19 C         -71.3625   29.9529  -70.0033 C.2       10 UNK         0.5551 
     20 N         -71.1854   28.8657  -70.7446 N.am      10 UNK        -0.7319 
     21 O         -70.5796   30.2119  -69.0927 O.2       10 UNK        -0.5018 
     22 N         -73.1932   30.7496  -71.6122 N.am      10 UNK        -0.4509 
     23 C         -72.5824   31.0049  -72.7762 C.2       10 UNK         0.4899 
     24 O         -71.4148   31.3860  -72.8793 O.2       10 UNK        -0.4839 
     25 CA        -73.4023   30.7893  -74.0495 C.3       9 UNK         0.0222 
     26 CB        -73.6687   32.1105  -74.7911 C.3       9 UNK        -0.1966 
     27 N         -72.6687   29.8584  -74.8998 N.am      9 UNK        -0.4218 
     28 C         -73.2229   28.9751  -75.7372 C.2       9 UNK         0.5020 
     29 O         -74.4280   28.9410  -75.9969 O.2       9 UNK        -0.5274 
     30 CA        -72.2607   27.9617  -76.3792 C.3       8 UNK         0.0270 
     31 CB        -71.4710   27.1727  -75.3151 C.3       8 UNK        -0.1976 
     32 N         -73.0051   27.0090  -77.2012 N.am      8 UNK        -0.4313 
     33 C         -72.6338   26.5579  -78.4062 C.2       8 UNK         0.5041 
     34 O         -71.6035   26.9198  -78.9776 O.2       8 UNK        -0.5577 
     35 CA        -73.5308   25.5088  -79.0988 C.3       7 UNK         0.0284 
     36 CB        -72.8558   24.1269  -79.0745 C.3       7 UNK        -0.1958 
     37 N         -74.8665   25.3887  -78.5106 N.am      7 UNK        -0.4454 
     38 C         -75.8422   26.2960  -78.6346 C.2       7 UNK         0.5089 
     39 O         -75.7620   27.2833  -79.3661 O.2       7 UNK        -0.5125 
     40 CA        -77.1222   26.0872  -77.7993 C.3       6 UNK         0.0408 
     41 CB        -78.2812   25.6413  -78.7064 C.3       6 UNK        -0.1791 
     42 N         -77.0348   25.1620  -76.6576 N.am      6 UNK        -0.4762 
     43 C         -76.1589   25.2145  -75.6414 C.2       6 UNK         0.5007 
     44 O         -75.1986   25.9799  -75.6186 O.2       6 UNK        -0.5032 
     45 CA        -76.3806   24.2758  -74.4409 C.3       5 UNK         0.0783 
     46 C46       -77.0638   25.0380  -73.2662 C.3       11 UNK        -0.0857 
     47 S47       -75.9911   25.1928  -71.7998 S.3       11 UNK        -0.2512 
     48 C48       -74.9548   26.6352  -72.2058 C.3       11 UNK         0.0225 
     49 N         -77.1305   23.0684  -74.8147 N.am      5 UNK        -0.4615 
     50 C         -76.6054   21.8363  -74.8763 C.2       4 UNK         0.5053 
     51 O         -75.4046   21.6049  -74.7308 O.2       4 UNK        -0.5105 
     52 CA        -77.5580   20.6444  -75.0998 C.3       4 UNK         0.0263 
     53 CB        -77.5968   19.7548  -73.8448 C.3       4 UNK        -0.1981 
     54 N         -78.9291   21.0476  -75.4217 N.am      4 UNK        -0.4224 
     55 C         -79.4300   21.1379  -76.6609 C.2       3 UNK         0.4895 
     56 O         -78.8017   20.8477  -77.6795 O.2       3 UNK        -0.5091 
     57 CA        -80.8744   21.6647  -76.7931 C.3       3 UNK         0.0250 
     58 CB        -81.8701   20.4933  -76.8095 C.3       3 UNK        -0.1996 
     59 N         -81.2866   22.6386  -75.7689 N.am      3 UNK        -0.4254 
     60 C         -80.6372   23.7768  -75.4935 C.2       2 UNK         0.5004 
     61 O         -79.5582   24.0825  -76.0108 O.2       2 UNK        -0.5226 
     62 CA        -81.2507   24.7129  -74.4446 C.3       2 UNK         0.0269 
     63 CB        -81.1526   24.1064  -73.0304 C.3       2 UNK        -0.1926 
     64 N         -80.5075   25.9660  -74.5366 N.am      2 UNK        -0.4687 
     65 C         -80.7868   27.1442  -73.9733 C.2       1 UNK         0.5165 
     66 O         -81.7234   27.3308  -73.1943 O.2       1 UNK        -0.5079 
     67 H67       -80.7103   27.8130  -78.7592 H         1 UNK         0.0900 
     68 H68       -80.6369   29.5745  -78.6749 H         1 UNK         0.0900 
     69 H69       -79.1934   28.6197  -78.3465 H         1 UNK         0.0900 
     70 H70       -78.7669   28.2436  -76.2003 H         1 UNK         0.2959 
     71 H71       -78.8813   28.0186  -74.0026 H         1 UNK         0.1079 
     72 H72       -80.2251   29.5623  -72.6575 H         1 UNK         0.0837 
     73 H73       -81.2630   29.9266  -74.0057 H         1 UNK         0.0837 
     74 H74       -77.4617   29.7609  -75.2258 H         1 UNK         0.0685 
     75 H75       -76.8359   31.2736  -74.6494 H         1 UNK         0.0685 
     76 H76       -76.2043   28.0505  -74.1740 H         1 UNK         0.1434 
     77 H77       -75.3273   28.1582  -69.9833 H         1 UNK         0.1329 
     78 H78       -77.4118   31.4256  -71.8206 H         1 UNK         0.1335 
     79 H79       -77.3645   31.1242  -69.3216 H         1 UNK         0.0680 
     80 H80       -76.3331   29.9208  -68.5944 H         1 UNK         0.0680 
     81 H81       -73.1218   31.0813  -68.1839 H         1 UNK         0.1032 
     82 H82       -73.9053   29.7570  -68.9835 H         1 UNK         0.1032 
     83 H83       -72.1622   31.9125  -70.2570 H         1 UNK         0.0461 
     84 H84       -71.8226   28.6507  -71.4929 H         1 UNK         0.3453 
     85 H85       -70.4017   28.2612  -70.5553 H         1 UNK         0.3453 
     86 H86       -74.1577   30.4453  -71.6115 H         1 UNK         0.2984 
     87 H87       -74.3572   30.3481  -73.7741 H         1 UNK         0.0554 
     88 H88       -74.2792   31.9485  -75.6796 H         1 UNK         0.0847 
     89 H89       -72.7415   32.5921  -75.1042 H         1 UNK         0.0847 
     90 H90       -74.2051   32.8134  -74.1525 H         1 UNK         0.0847 
     91 H91       -71.6701   29.8338  -74.7378 H         1 UNK         0.3141 
     92 H92       -71.5640   28.5287  -77.0000 H         1 UNK         0.0743 
     93 H93       -72.1389   26.6468  -74.6311 H         1 UNK         0.0784 
     94 H94       -70.8201   26.4306  -75.7782 H         1 UNK         0.0784 
     95 H95       -70.8326   27.8239  -74.7176 H         1 UNK         0.0784 
     96 H96       -73.8942   26.7118  -76.8012 H         1 UNK         0.3213 
     97 H97       -73.6423   25.8166  -80.1408 H         1 UNK         0.0855 
     98 H98       -72.7194   23.7624  -78.0555 H         1 UNK         0.0814 
     99 H99       -71.8702   24.1654  -79.5407 H         1 UNK         0.0814 
    100 H100      -73.4414   23.3881  -79.6219 H         1 UNK         0.0814 
    101 H101      -75.0217   24.6189  -77.8762 H         1 UNK         0.3105 
    102 H102      -77.3735   27.0652  -77.3864 H         1 UNK         0.0547 
    103 H103      -78.3861   26.3007  -79.5692 H         1 UNK         0.0837 
    104 H104      -78.1264   24.6306  -79.0857 H         1 UNK         0.0837 
    105 H105      -79.2328   25.6563  -78.1756 H         1 UNK         0.0837 
    106 H106      -77.8200   24.5230  -76.5648 H         1 UNK         0.3020 
    107 H107      -75.3754   23.9845  -74.1273 H         1 UNK         0.1245 
    108 H108      -77.9517   24.5031  -72.9313 H         1 UNK         0.0781 
    109 H109      -77.4331   26.0244  -73.5478 H         1 UNK         0.0781 
    110 H110      -74.5294   26.5231  -73.2027 H         1 UNK         0.0836 
    111 H111      -74.1018   26.6447  -71.5255 H         1 UNK         0.0836 
    112 H112      -78.1102   23.1986  -75.0404 H         1 UNK         0.3022 
    113 H113      -77.1440   20.0517  -75.9184 H         1 UNK         0.0747 
    114 H114      -78.2269   18.8787  -73.9996 H         1 UNK         0.0793 
    115 H115      -76.6001   19.3918  -73.5896 H         1 UNK         0.0793 
    116 H116      -77.9786   20.2948  -72.9774 H         1 UNK         0.0793 
    117 H117      -79.5258   21.2953  -74.6456 H         1 UNK         0.3047 
    118 H118      -80.9353   22.1742  -77.7572 H         1 UNK         0.0822 
    119 H119      -82.8822   20.8341  -77.0285 H         1 UNK         0.0807 
    120 H120      -81.8908   19.9673  -75.8541 H         1 UNK         0.0807 
    121 H121      -81.6042   19.7645  -77.5768 H         1 UNK         0.0807 
    122 H122      -82.1553   22.4462  -75.2903 H         1 UNK         0.2946 
    123 H123      -82.2945   24.9016  -74.7042 H         1 UNK         0.1144 
    124 H124      -81.7357   23.1879  -72.9565 H         1 UNK         0.0793 
    125 H125      -81.5405   24.7867  -72.2724 H         1 UNK         0.0793 
    126 H126      -80.1267   23.8598  -72.7611 H         1 UNK         0.0793 
    127 H127      -79.7501   25.9099  -75.2073 H         1 UNK         0.2896 
@<TRIPOS>BOND
     1    1    2 1    
     2    1   67 1    
     3    1   68 1    
     4    1   69 1    
     5    2    3 2    
     6    2    4 am   BACKBONE|DICT|INTERRES
     7    4    5 1    
     8    4   70 1    
     9    5    6 1    
    10    5   65 1    
    11    5   71 1    
    12    6    7 1    
    13    6   72 1    
    14    6   73 1    
    15    7    8 1    
    16    8    9 1    
    17    8   74 1    
    18    8   75 1    
    19    9   10 ar   
    20    9   14 ar   
    21   10   11 ar   
    22   10   76 1    
    23   11   12 ar   
    24   11   48 1    
    25   12   13 ar   
    26   12   77 1    
    27   13   14 ar   
    28   13   15 1    
    29   14   78 1    
    30   15   16 1    
    31   15   79 1    
    32   15   80 1    
    33   16   17 1    
    34   17   18 1    
    35   17   81 1    
    36   17   82 1    
    37   18   19 1    
    38   18   22 1    
    39   18   83 1    
    40   19   20 am   BACKBONE|DICT|INTERRES
    41   19   21 2    
    42   20   84 1    
    43   20   85 1    
    44   22   23 am   BACKBONE|DICT|INTERRES
    45   22   86 1    
    46   23   24 2    
    47   23   25 1    
    48   25   26 1    
    49   25   27 1    
    50   25   87 1    
    51   26   88 1    
    52   26   89 1    
    53   26   90 1    
    54   27   28 am   BACKBONE|DICT|INTERRES
    55   27   91 1    
    56   28   29 2    
    57   28   30 1    
    58   30   31 1    
    59   30   32 1    
    60   30   92 1    
    61   31   93 1    
    62   31   94 1    
    63   31   95 1    
    64   32   33 am   BACKBONE|DICT|INTERRES
    65   32   96 1    
    66   33   34 2    
    67   33   35 1    
    68   35   36 1    
    69   35   37 1    
    70   35   97 1    
    71   36   98 1    
    72   36   99 1    
    73   36  100 1    
    74   37   38 am   BACKBONE|DICT|INTERRES
    75   37  101 1    
    76   38   39 2    
    77   38   40 1    
    78   40   41 1    
    79   40   42 1    
    80   40  102 1    
    81   41  103 1    
    82   41  104 1    
    83   41  105 1    
    84   42   43 am   BACKBONE|DICT|INTERRES
    85   42  106 1    
    86   43   44 2    
    87   43   45 1    
    88   45   46 1    
    89   45   49 1    
    90   45  107 1    
    91   46   47 1    
    92   46  108 1    
    93   46  109 1    
    94   47   48 1    
    95   48  110 1    
    96   48  111 1    
    97   49   50 am   BACKBONE|DICT|INTERRES
    98   49  112 1    
    99   50   51 2    
   100   50   52 1    
   101   52   53 1    
   102   52   54 1    
   103   52  113 1    
   104   53  114 1    
   105   53  115 1    
   106   53  116 1    
   107   54   55 am   BACKBONE|DICT|INTERRES
   108   54  117 1    
   109   55   56 2    
   110   55   57 1    
   111   57   58 1    
   112   57   59 1    
   113   57  118 1    
   114   58  119 1    
   115   58  120 1    
   116   58  121 1    
   117   59   60 am   BACKBONE|DICT|INTERRES
   118   59  122 1    
   119   60   61 2    
   120   60   62 1    
   121   62   63 1    
   122   62   64 1    
   123   62  123 1    
   124   63  124 1    
   125   63  125 1    
   126   63  126 1    
   127   64   65 am   BACKBONE|DICT|INTERRES
   128   64  127 1    
   129   65   66 2    
@<TRIPOS>SUBSTRUCTURE
     1 UNK         1 GROUP             0       ****    0 ROOT    
