@<TRIPOS>MOLECULE
3R135
127   129    1
SMALL
USER_CHARGES


@<TRIPOS>ATOM
      1 CA        -82.0321   25.1023  -71.7512 C.3       0 UNK        -0.1998 
      2 C         -81.5311   25.9591  -72.9028 C.2       0 UNK         0.4909 
      3 O         -80.5908   25.5625  -73.5889 O.2       0 UNK        -0.5240 
      4 N         -82.1613   27.1218  -73.1274 N.am      1 UNK        -0.4739 
      5 CA        -81.7866   28.1362  -74.1287 C.3       1 UNK         0.0864 
      6 C6        -80.4689   28.8733  -73.7656 C.3       11 UNK        -0.0881 
      7 S7        -80.6461   29.8861  -72.2548 S.3       11 UNK        -0.2682 
      8 C8        -79.8124   28.8708  -70.9838 C.3       11 UNK         0.0289 
      9 C9        -78.3410   28.5691  -71.2642 C.ar      11 UNK        -0.0687 
     10 C10       -77.8000   27.3557  -70.8254 C.ar      11 UNK        -0.0823 
     11 C11       -76.4657   27.0277  -71.0922 C.ar      11 UNK        -0.0830 
     12 C12       -75.6681   27.9405  -71.7868 C.ar      11 UNK        -0.1021 
     13 C13       -76.1819   29.1681  -72.2082 C.ar      11 UNK        -0.0753 
     14 C14       -77.5162   29.4798  -71.9367 C.ar      11 UNK        -0.0933 
     15 C15       -75.2991   30.1528  -72.9610 C.3       11 UNK         0.0166 
     16 S16       -74.0022   30.8353  -71.8799 S.3       11 UNK        -0.2615 
     17 C17       -73.5298   32.3632  -72.7663 C.3       11 UNK        -0.0865 
     18 CA        -72.1961   32.2704  -73.5533 C.3       10 UNK         0.0862 
     19 C         -70.9467   32.1531  -72.6284 C.2       10 UNK         0.5551 
     20 N         -70.0693   31.1707  -72.8003 N.am      10 UNK        -0.7319 
     21 O         -70.7594   32.9872  -71.7457 O.2       10 UNK        -0.5018 
     22 N         -72.2714   31.2646  -74.6222 N.am      10 UNK        -0.4509 
     23 C         -71.5905   31.3201  -75.7729 C.2       10 UNK         0.4899 
     24 O         -70.8837   32.2737  -76.1037 O.2       10 UNK        -0.4839 
     25 CA        -71.7252   30.0998  -76.7060 C.3       9 UNK         0.0222 
     26 CB        -70.6013   30.0317  -77.7615 C.3       9 UNK        -0.1966 
     27 N         -71.8348   28.8158  -75.9996 N.am      9 UNK        -0.4218 
     28 C         -70.9596   28.2919  -75.1225 C.2       9 UNK         0.5020 
     29 O         -69.9657   28.8906  -74.7091 O.2       9 UNK        -0.5274 
     30 CA        -71.2351   26.8688  -74.5937 C.3       8 UNK         0.0270 
     31 CB        -71.7983   26.9412  -73.1665 C.3       8 UNK        -0.1976 
     32 N         -72.1546   26.0953  -75.4331 N.am      8 UNK        -0.4313 
     33 C         -71.8964   25.7013  -76.6907 C.2       8 UNK         0.5041 
     34 O         -70.7905   25.8091  -77.2220 O.2       8 UNK        -0.5577 
     35 CA        -73.0668   25.1337  -77.5191 C.3       7 UNK         0.0284 
     36 CB        -72.9070   23.6166  -77.7044 C.3       7 UNK        -0.1958 
     37 N         -74.3939   25.4271  -76.9625 N.am      7 UNK        -0.4454 
     38 C         -74.9066   26.6586  -76.7997 C.2       7 UNK         0.5089 
     39 O         -74.3251   27.6842  -77.1567 O.2       7 UNK        -0.5125 
     40 CA        -76.2533   26.7918  -76.0623 C.3       6 UNK         0.0408 
     41 CB        -77.3838   27.0900  -77.0575 C.3       6 UNK        -0.1791 
     42 N         -76.6285   25.6330  -75.2484 N.am      6 UNK        -0.4762 
     43 C         -75.9229   25.1332  -74.2203 C.2       6 UNK         0.5007 
     44 O         -74.8267   25.5717  -73.8670 O.2       6 UNK        -0.5032 
     45 CA        -76.5178   23.8873  -73.5249 C.3       5 UNK         0.0783 
     46 C46       -77.5585   24.3074  -72.4487 C.3       11 UNK        -0.0857 
     47 S47       -76.9321   24.2480  -70.7381 S.3       11 UNK        -0.2512 
     48 C48       -75.8455   25.7124  -70.6234 C.3       11 UNK         0.0225 
     49 N         -77.1146   22.9454  -74.4807 N.am      5 UNK        -0.4615 
     50 C         -76.5493   22.4506  -75.5912 C.2       4 UNK         0.5053 
     51 O         -75.3743   22.6401  -75.9004 O.2       4 UNK        -0.5105 
     52 CA        -77.4541   21.6496  -76.5491 C.3       4 UNK         0.0263 
     53 CB        -77.1074   20.1533  -76.4860 C.3       4 UNK        -0.1981 
     54 N         -78.8968   21.8189  -76.3232 N.am      4 UNK        -0.4224 
     55 C         -79.5726   22.9765  -76.3825 C.2       3 UNK         0.4895 
     56 O         -79.0473   24.0611  -76.6480 O.2       3 UNK        -0.5091 
     57 CA        -81.0667   22.8931  -76.0285 C.3       3 UNK         0.0250 
     58 CB        -81.2723   22.3638  -74.5956 C.3       3 UNK        -0.1996 
     59 N         -81.7087   24.2032  -76.1366 N.am      3 UNK        -0.4254 
     60 C         -82.3006   24.6741  -77.2426 C.2       2 UNK         0.5004 
     61 O         -82.3761   24.0365  -78.2946 O.2       2 UNK        -0.5226 
     62 CA        -82.9540   26.0681  -77.1727 C.3       2 UNK         0.0269 
     63 CB        -84.4617   25.9745  -77.4687 C.3       2 UNK        -0.1926 
     64 N         -82.7778   26.7218  -75.8722 N.am      2 UNK        -0.4687 
     65 C         -81.7974   27.5859  -75.5761 C.2       1 UNK         0.5165 
     66 O         -80.9457   27.9460  -76.3901 O.2       1 UNK        -0.5079 
     67 H67       -82.4289   24.1605  -72.1290 H         1 UNK         0.0900 
     68 H68       -82.8173   25.6006  -71.1830 H         1 UNK         0.0900 
     69 H69       -81.2113   24.8778  -71.0703 H         1 UNK         0.0900 
     70 H70       -82.9395   27.3778  -72.5352 H         1 UNK         0.2959 
     71 H71       -82.5853   28.8800  -74.1175 H         1 UNK         0.1079 
     72 H72       -79.6432   28.1668  -73.6655 H         1 UNK         0.0837 
     73 H73       -80.1767   29.5616  -74.5606 H         1 UNK         0.0837 
     74 H74       -80.3717   27.9414  -70.8700 H         1 UNK         0.0685 
     75 H75       -79.8808   29.3902  -70.0274 H         1 UNK         0.0685 
     76 H76       -78.4240   26.6573  -70.2850 H         1 UNK         0.1434 
     77 H77       -74.6359   27.6999  -71.9925 H         1 UNK         0.1329 
     78 H78       -77.9142   30.4312  -72.2603 H         1 UNK         0.1335 
     79 H79       -75.9061   30.9633  -73.3670 H         1 UNK         0.0680 
     80 H80       -74.8383   29.6519  -73.8136 H         1 UNK         0.0680 
     81 H81       -74.3309   32.6563  -73.4460 H         1 UNK         0.1032 
     82 H82       -73.4758   33.1715  -72.0345 H         1 UNK         0.1032 
     83 H83       -72.0779   33.2404  -74.0403 H         1 UNK         0.0461 
     84 H84       -69.2664   31.1217  -72.1941 H         1 UNK         0.3453 
     85 H85       -70.1830   30.4811  -73.5356 H         1 UNK         0.3453 
     86 H86       -72.7981   30.4317  -74.4089 H         1 UNK         0.2984 
     87 H87       -72.6684   30.2307  -77.2383 H         1 UNK         0.0554 
     88 H88       -70.7308   29.1752  -78.4234 H         1 UNK         0.0847 
     89 H89       -69.6175   29.9505  -77.2978 H         1 UNK         0.0847 
     90 H90       -70.5941   30.9247  -78.3877 H         1 UNK         0.0847 
     91 H91       -72.6392   28.2553  -76.2679 H         1 UNK         0.3141 
     92 H92       -70.2812   26.3384  -74.5636 H         1 UNK         0.0743 
     93 H93       -71.1012   27.4443  -72.4948 H         1 UNK         0.0784 
     94 H94       -72.7338   27.4985  -73.1408 H         1 UNK         0.0784 
     95 H95       -71.9858   25.9481  -72.7577 H         1 UNK         0.0784 
     96 H96       -73.0820   25.9300  -75.0545 H         1 UNK         0.3213 
     97 H97       -73.0182   25.6033  -78.5038 H         1 UNK         0.0855 
     98 H98       -72.8932   23.0941  -76.7472 H         1 UNK         0.0814 
     99 H99       -71.9710   23.3831  -78.2135 H         1 UNK         0.0814 
    100 H100      -73.7153   23.1988  -78.3048 H         1 UNK         0.0814 
    101 H101      -74.9146   24.6346  -76.6026 H         1 UNK         0.3105 
    102 H102      -76.1639   27.6432  -75.3844 H         1 UNK         0.0547 
    103 H103      -77.5423   26.2604  -77.7477 H         1 UNK         0.0837 
    104 H104      -78.3250   27.2777  -76.5409 H         1 UNK         0.0837 
    105 H105      -77.1601   27.9756  -77.6537 H         1 UNK         0.0837 
    106 H106      -77.4957   25.1717  -75.5031 H         1 UNK         0.3020 
    107 H107      -75.6888   23.3580  -73.0504 H         1 UNK         0.1245 
    108 H108      -78.4121   23.6276  -72.4599 H         1 UNK         0.0781 
    109 H109      -78.0002   25.2847  -72.6529 H         1 UNK         0.0781 
    110 H110      -75.5366   25.8306  -69.5842 H         1 UNK         0.0836 
    111 H111      -74.9344   25.5008  -71.1848 H         1 UNK         0.0836 
    112 H112      -78.0867   22.7262  -74.3276 H         1 UNK         0.3022 
    113 H113      -77.2396   22.0084  -77.5579 H         1 UNK         0.0747 
    114 H114      -76.0469   19.9889  -76.6832 H         1 UNK         0.0793 
    115 H115      -77.6634   19.5838  -77.2310 H         1 UNK         0.0793 
    116 H116      -77.3254   19.7294  -75.5049 H         1 UNK         0.0793 
    117 H117      -79.4090   20.9782  -76.0964 H         1 UNK         0.3047 
    118 H118      -81.5398   22.1963  -76.7239 H         1 UNK         0.0822 
    119 H119      -80.9527   21.3255  -74.5030 H         1 UNK         0.0807 
    120 H120      -82.3236   22.3965  -74.3090 H         1 UNK         0.0807 
    121 H121      -80.7098   22.9426  -73.8628 H         1 UNK         0.0807 
    122 H122      -81.5745   24.8290  -75.3509 H         1 UNK         0.2946 
    123 H123      -82.4922   26.6728  -77.9568 H         1 UNK         0.1144 
    124 H124      -84.9797   25.3541  -76.7362 H         1 UNK         0.0793 
    125 H125      -84.6433   25.5381  -78.4519 H         1 UNK         0.0793 
    126 H126      -84.9283   26.9598  -77.4650 H         1 UNK         0.0793 
    127 H127      -83.4296   26.4685  -75.1428 H         1 UNK         0.2896 
@<TRIPOS>BOND
     1    1    2 1    
     2    1   67 1    
     3    1   68 1    
     4    1   69 1    
     5    2    3 2    
     6    2    4 am   BACKBONE|DICT|INTERRES
     7    4    5 1    
     8    4   70 1    
     9    5    6 1    
    10    5   65 1    
    11    5   71 1    
    12    6    7 1    
    13    6   72 1    
    14    6   73 1    
    15    7    8 1    
    16    8    9 1    
    17    8   74 1    
    18    8   75 1    
    19    9   10 ar   
    20    9   14 ar   
    21   10   11 ar   
    22   10   76 1    
    23   11   12 ar   
    24   11   48 1    
    25   12   13 ar   
    26   12   77 1    
    27   13   14 ar   
    28   13   15 1    
    29   14   78 1    
    30   15   16 1    
    31   15   79 1    
    32   15   80 1    
    33   16   17 1    
    34   17   18 1    
    35   17   81 1    
    36   17   82 1    
    37   18   19 1    
    38   18   22 1    
    39   18   83 1    
    40   19   20 am   BACKBONE|DICT|INTERRES
    41   19   21 2    
    42   20   84 1    
    43   20   85 1    
    44   22   23 am   BACKBONE|DICT|INTERRES
    45   22   86 1    
    46   23   24 2    
    47   23   25 1    
    48   25   26 1    
    49   25   27 1    
    50   25   87 1    
    51   26   88 1    
    52   26   89 1    
    53   26   90 1    
    54   27   28 am   BACKBONE|DICT|INTERRES
    55   27   91 1    
    56   28   29 2    
    57   28   30 1    
    58   30   31 1    
    59   30   32 1    
    60   30   92 1    
    61   31   93 1    
    62   31   94 1    
    63   31   95 1    
    64   32   33 am   BACKBONE|DICT|INTERRES
    65   32   96 1    
    66   33   34 2    
    67   33   35 1    
    68   35   36 1    
    69   35   37 1    
    70   35   97 1    
    71   36   98 1    
    72   36   99 1    
    73   36  100 1    
    74   37   38 am   BACKBONE|DICT|INTERRES
    75   37  101 1    
    76   38   39 2    
    77   38   40 1    
    78   40   41 1    
    79   40   42 1    
    80   40  102 1    
    81   41  103 1    
    82   41  104 1    
    83   41  105 1    
    84   42   43 am   BACKBONE|DICT|INTERRES
    85   42  106 1    
    86   43   44 2    
    87   43   45 1    
    88   45   46 1    
    89   45   49 1    
    90   45  107 1    
    91   46   47 1    
    92   46  108 1    
    93   46  109 1    
    94   47   48 1    
    95   48  110 1    
    96   48  111 1    
    97   49   50 am   BACKBONE|DICT|INTERRES
    98   49  112 1    
    99   50   51 2    
   100   50   52 1    
   101   52   53 1    
   102   52   54 1    
   103   52  113 1    
   104   53  114 1    
   105   53  115 1    
   106   53  116 1    
   107   54   55 am   BACKBONE|DICT|INTERRES
   108   54  117 1    
   109   55   56 2    
   110   55   57 1    
   111   57   58 1    
   112   57   59 1    
   113   57  118 1    
   114   58  119 1    
   115   58  120 1    
   116   58  121 1    
   117   59   60 am   BACKBONE|DICT|INTERRES
   118   59  122 1    
   119   60   61 2    
   120   60   62 1    
   121   62   63 1    
   122   62   64 1    
   123   62  123 1    
   124   63  124 1    
   125   63  125 1    
   126   63  126 1    
   127   64   65 am   BACKBONE|DICT|INTERRES
   128   64  127 1    
   129   65   66 2    
@<TRIPOS>SUBSTRUCTURE
     1 UNK         1 GROUP             0       ****    0 ROOT    
