@<TRIPOS>MOLECULE
3R135
127   129    1
SMALL
USER_CHARGES


@<TRIPOS>ATOM
      1 CA        -84.2866   26.2379  -74.3945 C.3       0 UNK        -0.1998 
      2 C         -83.1261   27.0590  -74.9352 C.2       0 UNK         0.4909 
      3 O         -82.8072   26.9629  -76.1213 O.2       0 UNK        -0.5240 
      4 N         -82.4958   27.8707  -74.0766 N.am      1 UNK        -0.4739 
      5 CA        -81.3027   28.6637  -74.3900 C.3       1 UNK         0.0864 
      6 C6        -80.9815   29.7450  -73.3143 C.3       11 UNK        -0.0881 
      7 S7        -81.4261   29.3614  -71.5808 S.3       11 UNK        -0.2682 
      8 C8        -80.2378   28.0675  -71.0910 C.3       11 UNK         0.0289 
      9 C9        -78.7711   28.4823  -71.1667 C.ar      11 UNK        -0.0687 
     10 C10       -77.8485   27.6307  -71.7815 C.ar      11 UNK        -0.0823 
     11 C11       -76.4847   27.9350  -71.7782 C.ar      11 UNK        -0.0830 
     12 C12       -76.0492   29.1105  -71.1675 C.ar      11 UNK        -0.1021 
     13 C13       -76.9568   29.9975  -70.5812 C.ar      11 UNK        -0.0753 
     14 C14       -78.3182   29.6680  -70.5745 C.ar      11 UNK        -0.0933 
     15 C15       -76.4764   31.2868  -69.9168 C.3       11 UNK         0.0166 
     16 S16       -75.4056   32.3152  -70.9868 S.3       11 UNK        -0.2615 
     17 C17       -73.7373   31.6651  -70.5996 C.3       11 UNK        -0.0865 
     18 CA        -72.8163   31.4222  -71.8330 C.3       10 UNK         0.0862 
     19 C         -71.5273   30.6601  -71.3955 C.2       10 UNK         0.5551 
     20 N         -71.2755   29.4414  -71.8618 N.am      10 UNK        -0.7319 
     21 O         -70.7442   31.1887  -70.6103 O.2       10 UNK        -0.5018 
     22 N         -73.5259   30.8378  -72.9855 N.am      10 UNK        -0.4509 
     23 C         -73.0277   30.7548  -74.2254 C.2       10 UNK         0.4899 
     24 O         -71.9286   31.1986  -74.5644 O.2       10 UNK        -0.4839 
     25 CA        -73.9132   30.0583  -75.2714 C.3       9 UNK         0.0222 
     26 CB        -74.3183   31.0572  -76.3699 C.3       9 UNK        -0.1966 
     27 N         -73.2532   28.9051  -75.8917 N.am      9 UNK        -0.4218 
     28 C         -72.7053   27.8574  -75.2601 C.2       9 UNK         0.5020 
     29 O         -72.6790   27.7338  -74.0339 O.2       9 UNK        -0.5274 
     30 CA        -72.1171   26.7512  -76.1618 C.3       8 UNK         0.0270 
     31 CB        -71.3931   25.6553  -75.3587 C.3       8 UNK        -0.1976 
     32 N         -73.1451   26.1295  -77.0055 N.am      8 UNK        -0.4313 
     33 C         -73.6650   26.6801  -78.1116 C.2       8 UNK         0.5041 
     34 O         -73.2968   27.7734  -78.5466 O.2       8 UNK        -0.5577 
     35 CA        -74.8196   25.9504  -78.8221 C.3       7 UNK         0.0284 
     36 CB        -74.6508   25.9267  -80.3563 C.3       7 UNK        -0.1958 
     37 N         -75.1400   24.6258  -78.2731 N.am      7 UNK        -0.4454 
     38 C         -74.4990   23.4628  -78.4606 C.2       7 UNK         0.5089 
     39 O         -73.4685   23.3395  -79.1235 O.2       7 UNK        -0.5125 
     40 CA        -75.1352   22.2333  -77.7770 C.3       6 UNK         0.0408 
     41 CB        -74.2492   20.9713  -77.8491 C.3       6 UNK        -0.1791 
     42 N         -75.5560   22.5080  -76.3970 N.am      6 UNK        -0.4762 
     43 C         -74.7665   22.8787  -75.3743 C.2       6 UNK         0.5007 
     44 O         -73.5427   22.9726  -75.4703 O.2       6 UNK        -0.5032 
     45 CA        -75.4444   23.2669  -74.0418 C.3       5 UNK         0.0783 
     46 C46       -74.7620   24.5283  -73.4466 C.3       11 UNK        -0.0857 
     47 S47       -75.6503   25.2719  -72.0361 S.3       11 UNK        -0.2512 
     48 C48       -75.4716   27.0321  -72.4659 C.3       11 UNK         0.0225 
     49 N         -76.8888   23.4429  -74.2282 N.am      5 UNK        -0.4615 
     50 C         -77.8356   22.6125  -73.7713 C.2       4 UNK         0.5053 
     51 O         -77.5957   21.5909  -73.1275 O.2       4 UNK        -0.5105 
     52 CA        -79.3024   22.9633  -74.0912 C.3       4 UNK         0.0263 
     53 CB        -79.9736   23.6100  -72.8687 C.3       4 UNK        -0.1981 
     54 N         -79.4564   23.8488  -75.2491 N.am      4 UNK        -0.4224 
     55 C         -79.1517   23.5118  -76.5129 C.2       3 UNK         0.4895 
     56 O         -78.7593   22.3931  -76.8449 O.2       3 UNK        -0.5091 
     57 CA        -79.2232   24.6213  -77.5790 C.3       3 UNK         0.0250 
     58 CB        -80.5935   24.6093  -78.2738 C.3       3 UNK        -0.1996 
     59 N         -78.9605   25.9635  -77.0520 N.am      3 UNK        -0.4254 
     60 C         -77.8510   26.3375  -76.3992 C.2       2 UNK         0.5004 
     61 O         -76.8783   25.6010  -76.2316 O.2       2 UNK        -0.5226 
     62 CA        -77.8320   27.7468  -75.7887 C.3       2 UNK         0.0269 
     63 CB        -77.0558   28.7078  -76.6972 C.3       2 UNK        -0.1926 
     64 N         -79.1471   28.3234  -75.4889 N.am      2 UNK        -0.4687 
     65 C         -80.0756   27.7788  -74.6889 C.2       1 UNK         0.5165 
     66 O         -79.9783   26.6517  -74.1962 O.2       1 UNK        -0.5079 
     67 H67       -85.1989   26.4701  -74.9433 H         1 UNK         0.0900 
     68 H68       -84.4666   26.4340  -73.3376 H         1 UNK         0.0900 
     69 H69       -84.0785   25.1747  -74.5116 H         1 UNK         0.0900 
     70 H70       -82.7837   27.9034  -73.1085 H         1 UNK         0.2959 
     71 H71       -81.5253   29.1913  -75.3207 H         1 UNK         0.1079 
     72 H72       -79.9360   30.0596  -73.3473 H         1 UNK         0.0837 
     73 H73       -81.5435   30.6455  -73.5665 H         1 UNK         0.0837 
     74 H74       -80.4540   27.7831  -70.0606 H         1 UNK         0.0685 
     75 H75       -80.4258   27.1751  -71.6882 H         1 UNK         0.0685 
     76 H76       -78.1877   26.7155  -72.2471 H         1 UNK         0.1434 
     77 H77       -74.9944   29.3283  -71.1583 H         1 UNK         0.1329 
     78 H78       -79.0292   30.3265  -70.0943 H         1 UNK         0.1335 
     79 H79       -75.9588   31.0461  -68.9873 H         1 UNK         0.0680 
     80 H80       -77.3342   31.8976  -69.6313 H         1 UNK         0.0680 
     81 H81       -73.8300   30.7561  -70.0041 H         1 UNK         0.1032 
     82 H82       -73.2583   32.3833  -69.9313 H         1 UNK         0.1032 
     83 H83       -72.4769   32.4049  -72.1661 H         1 UNK         0.0461 
     84 H84       -71.8922   28.9982  -72.5328 H         1 UNK         0.3453 
     85 H85       -70.4380   28.9668  -71.5654 H         1 UNK         0.3453 
     86 H86       -74.4518   30.4831  -72.8005 H         1 UNK         0.2984 
     87 H87       -74.8186   29.6891  -74.7855 H         1 UNK         0.0554 
     88 H88       -74.9256   30.5901  -77.1441 H         1 UNK         0.0847 
     89 H89       -73.4455   31.4916  -76.8596 H         1 UNK         0.0847 
     90 H90       -74.8994   31.8805  -75.9522 H         1 UNK         0.0847 
     91 H91       -73.2302   28.8799  -76.9075 H         1 UNK         0.3141 
     92 H92       -71.3747   27.2244  -76.8081 H         1 UNK         0.0743 
     93 H93       -72.0658   25.1463  -74.6691 H         1 UNK         0.0784 
     94 H94       -70.9570   24.9027  -76.0158 H         1 UNK         0.0784 
     95 H95       -70.5812   26.0789  -74.7662 H         1 UNK         0.0784 
     96 H96       -73.5018   25.2336  -76.7024 H         1 UNK         0.3213 
     97 H97       -75.7026   26.5574  -78.6200 H         1 UNK         0.0855 
     98 H98       -74.6126   26.9398  -80.7585 H         1 UNK         0.0814 
     99 H99       -75.4844   25.4191  -80.8415 H         1 UNK         0.0814 
    100 H100      -73.7290   25.4295  -80.6586 H         1 UNK         0.0814 
    101 H101      -75.9176   24.6329  -77.6180 H         1 UNK         0.3105 
    102 H102      -76.0498   22.0203  -78.3325 H         1 UNK         0.0547 
    103 H103      -74.0498   20.6949  -78.8851 H         1 UNK         0.0837 
    104 H104      -73.2841   21.1213  -77.3645 H         1 UNK         0.0837 
    105 H105      -74.7342   20.1181  -77.3752 H         1 UNK         0.0837 
    106 H106      -76.5543   22.4622  -76.2298 H         1 UNK         0.3020 
    107 H107      -75.2594   22.4386  -73.3544 H         1 UNK         0.1245 
    108 H108      -74.6366   25.2824  -74.2259 H         1 UNK         0.0781 
    109 H109      -73.7538   24.2845  -73.1068 H         1 UNK         0.0781 
    110 H110      -75.5619   27.1749  -73.5412 H         1 UNK         0.0836 
    111 H111      -74.4559   27.3301  -72.2033 H         1 UNK         0.0836 
    112 H112      -77.1564   24.2546  -74.7744 H         1 UNK         0.3022 
    113 H113      -79.8222   22.0292  -74.3144 H         1 UNK         0.0747 
    114 H114      -81.0192   23.8473  -73.0658 H         1 UNK         0.0793 
    115 H115      -79.9486   22.9388  -72.0093 H         1 UNK         0.0793 
    116 H116      -79.4706   24.5321  -72.5749 H         1 UNK         0.0793 
    117 H117      -79.7376   24.8045  -75.0487 H         1 UNK         0.3047 
    118 H118      -78.4562   24.4060  -78.3258 H         1 UNK         0.0822 
    119 H119      -80.6287   25.3243  -79.0959 H         1 UNK         0.0807 
    120 H120      -81.3994   24.8550  -77.5804 H         1 UNK         0.0807 
    121 H121      -80.8112   23.6256  -78.6926 H         1 UNK         0.0807 
    122 H122      -79.7136   26.6329  -77.1233 H         1 UNK         0.2946 
    123 H123      -77.3044   27.6694  -74.8389 H         1 UNK         0.1144 
    124 H124      -76.9827   29.6985  -76.2492 H         1 UNK         0.0793 
    125 H125      -77.5299   28.8150  -77.6737 H         1 UNK         0.0793 
    126 H126      -76.0393   28.3502  -76.8633 H         1 UNK         0.0793 
    127 H127      -79.3173   29.2462  -75.8631 H         1 UNK         0.2896 
@<TRIPOS>BOND
     1    1    2 1    
     2    1   67 1    
     3    1   68 1    
     4    1   69 1    
     5    2    3 2    
     6    2    4 am   BACKBONE|DICT|INTERRES
     7    4    5 1    
     8    4   70 1    
     9    5    6 1    
    10    5   65 1    
    11    5   71 1    
    12    6    7 1    
    13    6   72 1    
    14    6   73 1    
    15    7    8 1    
    16    8    9 1    
    17    8   74 1    
    18    8   75 1    
    19    9   10 ar   
    20    9   14 ar   
    21   10   11 ar   
    22   10   76 1    
    23   11   12 ar   
    24   11   48 1    
    25   12   13 ar   
    26   12   77 1    
    27   13   14 ar   
    28   13   15 1    
    29   14   78 1    
    30   15   16 1    
    31   15   79 1    
    32   15   80 1    
    33   16   17 1    
    34   17   18 1    
    35   17   81 1    
    36   17   82 1    
    37   18   19 1    
    38   18   22 1    
    39   18   83 1    
    40   19   20 am   BACKBONE|DICT|INTERRES
    41   19   21 2    
    42   20   84 1    
    43   20   85 1    
    44   22   23 am   BACKBONE|DICT|INTERRES
    45   22   86 1    
    46   23   24 2    
    47   23   25 1    
    48   25   26 1    
    49   25   27 1    
    50   25   87 1    
    51   26   88 1    
    52   26   89 1    
    53   26   90 1    
    54   27   28 am   BACKBONE|DICT|INTERRES
    55   27   91 1    
    56   28   29 2    
    57   28   30 1    
    58   30   31 1    
    59   30   32 1    
    60   30   92 1    
    61   31   93 1    
    62   31   94 1    
    63   31   95 1    
    64   32   33 am   BACKBONE|DICT|INTERRES
    65   32   96 1    
    66   33   34 2    
    67   33   35 1    
    68   35   36 1    
    69   35   37 1    
    70   35   97 1    
    71   36   98 1    
    72   36   99 1    
    73   36  100 1    
    74   37   38 am   BACKBONE|DICT|INTERRES
    75   37  101 1    
    76   38   39 2    
    77   38   40 1    
    78   40   41 1    
    79   40   42 1    
    80   40  102 1    
    81   41  103 1    
    82   41  104 1    
    83   41  105 1    
    84   42   43 am   BACKBONE|DICT|INTERRES
    85   42  106 1    
    86   43   44 2    
    87   43   45 1    
    88   45   46 1    
    89   45   49 1    
    90   45  107 1    
    91   46   47 1    
    92   46  108 1    
    93   46  109 1    
    94   47   48 1    
    95   48  110 1    
    96   48  111 1    
    97   49   50 am   BACKBONE|DICT|INTERRES
    98   49  112 1    
    99   50   51 2    
   100   50   52 1    
   101   52   53 1    
   102   52   54 1    
   103   52  113 1    
   104   53  114 1    
   105   53  115 1    
   106   53  116 1    
   107   54   55 am   BACKBONE|DICT|INTERRES
   108   54  117 1    
   109   55   56 2    
   110   55   57 1    
   111   57   58 1    
   112   57   59 1    
   113   57  118 1    
   114   58  119 1    
   115   58  120 1    
   116   58  121 1    
   117   59   60 am   BACKBONE|DICT|INTERRES
   118   59  122 1    
   119   60   61 2    
   120   60   62 1    
   121   62   63 1    
   122   62   64 1    
   123   62  123 1    
   124   63  124 1    
   125   63  125 1    
   126   63  126 1    
   127   64   65 am   BACKBONE|DICT|INTERRES
   128   64  127 1    
   129   65   66 2    
@<TRIPOS>SUBSTRUCTURE
     1 UNK         1 GROUP             0       ****    0 ROOT    
