@<TRIPOS>MOLECULE
3R135
127   129    1
SMALL
USER_CHARGES


@<TRIPOS>ATOM
      1 CA        -85.1614   23.4260  -73.4871 C.3       0 UNK        -0.1998 
      2 C         -83.9475   24.3062  -73.2344 C.2       0 UNK         0.4909 
      3 O         -82.8337   23.9288  -73.6075 O.2       0 UNK        -0.5240 
      4 N         -84.1575   25.4853  -72.6260 N.am      1 UNK        -0.4739 
      5 CA        -83.1666   26.5044  -72.2310 C.3       1 UNK         0.0864 
      6 C6        -82.1511   25.9581  -71.1864 C.3       11 UNK        -0.0881 
      7 S7        -80.9871   27.2047  -70.5283 S.3       11 UNK        -0.2682 
      8 C8        -79.4555   26.6632  -71.3476 C.3       11 UNK         0.0289 
      9 C9        -78.4871   27.8103  -71.5880 C.ar      11 UNK        -0.0687 
     10 C10       -78.7851   28.7757  -72.5534 C.ar      11 UNK        -0.0823 
     11 C11       -77.8681   29.7857  -72.8565 C.ar      11 UNK        -0.0830 
     12 C12       -76.6544   29.8399  -72.1682 C.ar      11 UNK        -0.1021 
     13 C13       -76.3441   28.8804  -71.2006 C.ar      11 UNK        -0.0753 
     14 C14       -77.2666   27.8710  -70.9070 C.ar      11 UNK        -0.0933 
     15 C15       -74.9926   28.9235  -70.5087 C.3       11 UNK         0.0166 
     16 S16       -73.7148   28.1896  -71.5739 S.3       11 UNK        -0.2615 
     17 C17       -72.1953   28.8011  -70.7694 C.3       11 UNK        -0.0865 
     18 CA        -71.7208   30.1822  -71.3171 C.3       10 UNK         0.0862 
     19 C         -70.4877   30.7366  -70.5389 C.2       10 UNK         0.5551 
     20 N         -69.5736   31.4581  -71.1763 N.am      10 UNK        -0.7319 
     21 O         -70.3718   30.5400  -69.3315 O.2       10 UNK        -0.5018 
     22 N         -71.5971   30.2275  -72.7882 N.am      10 UNK        -0.4509 
     23 C         -70.7793   29.4765  -73.5354 C.2       10 UNK         0.4899 
     24 O         -69.9778   28.6561  -73.0819 O.2       10 UNK        -0.4839 
     25 CA        -70.8399   29.7133  -75.0536 C.3       9 UNK         0.0222 
     26 CB        -69.7242   30.6746  -75.4955 C.3       9 UNK        -0.1966 
     27 N         -70.6994   28.4454  -75.7704 N.am      9 UNK        -0.4218 
     28 C         -71.6815   27.5441  -75.8950 C.2       9 UNK         0.5020 
     29 O         -72.8453   27.7519  -75.5529 O.2       9 UNK        -0.5274 
     30 CA        -71.2717   26.1795  -76.4632 C.3       8 UNK         0.0270 
     31 CB        -70.4678   25.3788  -75.4176 C.3       8 UNK        -0.1976 
     32 N         -72.4444   25.4053  -76.8769 N.am      8 UNK        -0.4313 
     33 C         -72.4047   24.3976  -77.7597 C.2       8 UNK         0.5041 
     34 O         -71.3834   24.0625  -78.3630 O.2       8 UNK        -0.5577 
     35 CA        -73.7000   23.6076  -78.0120 C.3       7 UNK         0.0284 
     36 CB        -73.9590   22.6054  -76.8752 C.3       7 UNK        -0.1958 
     37 N         -74.8728   24.4596  -78.2038 N.am      7 UNK        -0.4454 
     38 C         -75.1106   25.1865  -79.3046 C.2       7 UNK         0.5089 
     39 O         -74.3641   25.2149  -80.2837 O.2       7 UNK        -0.5125 
     40 CA        -76.4053   26.0189  -79.3251 C.3       6 UNK         0.0408 
     41 CB        -77.5774   25.1894  -79.8724 C.3       6 UNK        -0.1791 
     42 N         -76.7581   26.5427  -78.0063 N.am      6 UNK        -0.4762 
     43 C         -76.0724   27.4962  -77.3592 C.2       6 UNK         0.5007 
     44 O         -75.1238   28.1083  -77.8504 O.2       6 UNK        -0.5032 
     45 CA        -76.5331   27.8036  -75.9203 C.3       5 UNK         0.0783 
     46 C46       -77.7128   28.8202  -75.9296 C.3       11 UNK        -0.0857 
     47 S47       -77.1862   30.5000  -75.4536 S.3       11 UNK        -0.2512 
     48 C48       -78.1737   30.7998  -73.9491 C.3       11 UNK         0.0225 
     49 N         -76.8697   26.5780  -75.1824 N.am      5 UNK        -0.4615 
     50 C         -76.0172   25.5852  -74.8849 C.2       4 UNK         0.5053 
     51 O         -74.8271   25.5804  -75.1875 O.2       4 UNK        -0.5105 
     52 CA        -76.6036   24.3496  -74.1820 C.3       4 UNK         0.0263 
     53 CB        -76.5858   24.5285  -72.6579 C.3       4 UNK        -0.1981 
     54 N         -77.9592   24.0348  -74.6399 N.am      4 UNK        -0.4224 
     55 C         -78.2397   23.5894  -75.8732 C.2       3 UNK         0.4895 
     56 O         -77.3847   23.3538  -76.7272 O.2       3 UNK        -0.5091 
     57 CA        -79.7270   23.4316  -76.2279 C.3       3 UNK         0.0250 
     58 CB        -80.2857   22.1143  -75.6666 C.3       3 UNK        -0.1996 
     59 N         -80.5599   24.5512  -75.7735 N.am      3 UNK        -0.4254 
     60 C         -80.4058   25.8259  -76.1730 C.2       2 UNK         0.5004 
     61 O         -79.5029   26.1952  -76.9237 O.2       2 UNK        -0.5226 
     62 CA        -81.3978   26.8757  -75.6510 C.3       2 UNK         0.0269 
     63 CB        -82.4393   27.2251  -76.7277 C.3       2 UNK        -0.1926 
     64 N         -82.0722   26.4356  -74.4318 N.am      2 UNK        -0.4687 
     65 C         -82.4965   27.2139  -73.4348 C.2       1 UNK         0.5165 
     66 O         -82.3958   28.4416  -73.4450 O.2       1 UNK        -0.5079 
     67 H67       -86.0797   23.8785  -73.1133 H         1 UNK         0.0900 
     68 H68       -85.2798   23.2494  -74.5558 H         1 UNK         0.0900 
     69 H69       -85.0328   22.4626  -72.9947 H         1 UNK         0.0900 
     70 H70       -85.1107   25.7305  -72.3939 H         1 UNK         0.2959 
     71 H71       -83.7462   27.2805  -71.7276 H         1 UNK         0.1079 
     72 H72       -81.5930   25.1142  -71.5941 H         1 UNK         0.0837 
     73 H73       -82.6999   25.5517  -70.3355 H         1 UNK         0.0837 
     74 H74       -78.9948   25.8789  -70.7449 H         1 UNK         0.0685 
     75 H75       -79.6879   26.2130  -72.3137 H         1 UNK         0.0685 
     76 H76       -79.7255   28.7240  -73.0848 H         1 UNK         0.1434 
     77 H77       -75.9348   30.6102  -72.4106 H         1 UNK         0.1329 
     78 H78       -77.0204   27.1168  -70.1720 H         1 UNK         0.1335 
     79 H79       -75.0249   28.3905  -69.5571 H         1 UNK         0.0680 
     80 H80       -74.7342   29.9584  -70.2796 H         1 UNK         0.0680 
     81 H81       -71.4141   28.0517  -70.9053 H         1 UNK         0.1032 
     82 H82       -72.3705   28.8514  -69.6931 H         1 UNK         0.1032 
     83 H83       -72.5140   30.8949  -71.0893 H         1 UNK         0.0461 
     84 H84       -69.6617   31.6343  -72.1638 H         1 UNK         0.3453 
     85 H85       -68.7855   31.8224  -70.6645 H         1 UNK         0.3453 
     86 H86       -72.2058   30.8863  -73.2520 H         1 UNK         0.2984 
     87 H87       -71.8030   30.1600  -75.3113 H         1 UNK         0.0554 
     88 H88       -69.8255   31.6429  -75.0037 H         1 UNK         0.0847 
     89 H89       -69.7577   30.8548  -76.5702 H         1 UNK         0.0847 
     90 H90       -68.7342   30.2872  -75.2505 H         1 UNK         0.0847 
     91 H91       -69.7612   28.1795  -76.0327 H         1 UNK         0.3141 
     92 H92       -70.6449   26.3651  -77.3382 H         1 UNK         0.0743 
     93 H93       -71.0725   25.1569  -74.5372 H         1 UNK         0.0784 
     94 H94       -70.1107   24.4328  -75.8248 H         1 UNK         0.0784 
     95 H95       -69.5909   25.9316  -75.0784 H         1 UNK         0.0784 
     96 H96       -73.3152   25.6474  -76.4023 H         1 UNK         0.3213 
     97 H97       -73.5583   23.0317  -78.9294 H         1 UNK         0.0855 
     98 H98       -74.0791   23.1035  -75.9137 H         1 UNK         0.0814 
     99 H99       -73.1256   21.9087  -76.7760 H         1 UNK         0.0814 
    100 H100      -74.8559   22.0143  -77.0618 H         1 UNK         0.0814 
    101 H101      -75.5630   24.4678  -77.4627 H         1 UNK         0.3105 
    102 H102      -76.2476   26.8665  -79.9953 H         1 UNK         0.0547 
    103 H103      -77.3576   24.8176  -80.8739 H         1 UNK         0.0837 
    104 H104      -77.7905   24.3248  -79.2430 H         1 UNK         0.0837 
    105 H105      -78.4879   25.7852  -79.9393 H         1 UNK         0.0837 
    106 H106      -77.5803   26.1503  -77.5561 H         1 UNK         0.3020 
    107 H107      -75.6742   28.2387  -75.4021 H         1 UNK         0.1245 
    108 H108      -78.5055   28.4968  -75.2579 H         1 UNK         0.0781 
    109 H109      -78.2030   28.8841  -76.9038 H         1 UNK         0.0781 
    110 H110      -79.2342   30.7871  -74.2063 H         1 UNK         0.0836 
    111 H111      -77.9618   31.8043  -73.5799 H         1 UNK         0.0836 
    112 H112      -77.8393   26.4613  -74.9358 H         1 UNK         0.3022 
    113 H113      -75.9653   23.4970  -74.4230 H         1 UNK         0.0747 
    114 H114      -76.9607   23.6426  -72.1451 H         1 UNK         0.0793 
    115 H115      -75.5703   24.7064  -72.3007 H         1 UNK         0.0793 
    116 H116      -77.1870   25.3801  -72.3498 H         1 UNK         0.0793 
    117 H117      -78.7196   24.1890  -73.9947 H         1 UNK         0.3047 
    118 H118      -79.7971   23.3934  -77.3173 H         1 UNK         0.0822 
    119 H119      -80.2922   22.1077  -74.5758 H         1 UNK         0.0807 
    120 H120      -79.6872   21.2636  -75.9960 H         1 UNK         0.0807 
    121 H121      -81.3070   21.9410  -76.0064 H         1 UNK         0.0807 
    122 H122      -81.3245   24.3083  -75.1574 H         1 UNK         0.2946 
    123 H123      -80.8168   27.7731  -75.4294 H         1 UNK         0.1144 
    124 H124      -81.9551   27.5498  -77.6498 H         1 UNK         0.0793 
    125 H125      -83.0896   28.0369  -76.4016 H         1 UNK         0.0793 
    126 H126      -83.0686   26.3683  -76.9713 H         1 UNK         0.0793 
    127 H127      -82.2401   25.4394  -74.3120 H         1 UNK         0.2896 
@<TRIPOS>BOND
     1    1    2 1    
     2    1   67 1    
     3    1   68 1    
     4    1   69 1    
     5    2    3 2    
     6    2    4 am   BACKBONE|DICT|INTERRES
     7    4    5 1    
     8    4   70 1    
     9    5    6 1    
    10    5   65 1    
    11    5   71 1    
    12    6    7 1    
    13    6   72 1    
    14    6   73 1    
    15    7    8 1    
    16    8    9 1    
    17    8   74 1    
    18    8   75 1    
    19    9   10 ar   
    20    9   14 ar   
    21   10   11 ar   
    22   10   76 1    
    23   11   12 ar   
    24   11   48 1    
    25   12   13 ar   
    26   12   77 1    
    27   13   14 ar   
    28   13   15 1    
    29   14   78 1    
    30   15   16 1    
    31   15   79 1    
    32   15   80 1    
    33   16   17 1    
    34   17   18 1    
    35   17   81 1    
    36   17   82 1    
    37   18   19 1    
    38   18   22 1    
    39   18   83 1    
    40   19   20 am   BACKBONE|DICT|INTERRES
    41   19   21 2    
    42   20   84 1    
    43   20   85 1    
    44   22   23 am   BACKBONE|DICT|INTERRES
    45   22   86 1    
    46   23   24 2    
    47   23   25 1    
    48   25   26 1    
    49   25   27 1    
    50   25   87 1    
    51   26   88 1    
    52   26   89 1    
    53   26   90 1    
    54   27   28 am   BACKBONE|DICT|INTERRES
    55   27   91 1    
    56   28   29 2    
    57   28   30 1    
    58   30   31 1    
    59   30   32 1    
    60   30   92 1    
    61   31   93 1    
    62   31   94 1    
    63   31   95 1    
    64   32   33 am   BACKBONE|DICT|INTERRES
    65   32   96 1    
    66   33   34 2    
    67   33   35 1    
    68   35   36 1    
    69   35   37 1    
    70   35   97 1    
    71   36   98 1    
    72   36   99 1    
    73   36  100 1    
    74   37   38 am   BACKBONE|DICT|INTERRES
    75   37  101 1    
    76   38   39 2    
    77   38   40 1    
    78   40   41 1    
    79   40   42 1    
    80   40  102 1    
    81   41  103 1    
    82   41  104 1    
    83   41  105 1    
    84   42   43 am   BACKBONE|DICT|INTERRES
    85   42  106 1    
    86   43   44 2    
    87   43   45 1    
    88   45   46 1    
    89   45   49 1    
    90   45  107 1    
    91   46   47 1    
    92   46  108 1    
    93   46  109 1    
    94   47   48 1    
    95   48  110 1    
    96   48  111 1    
    97   49   50 am   BACKBONE|DICT|INTERRES
    98   49  112 1    
    99   50   51 2    
   100   50   52 1    
   101   52   53 1    
   102   52   54 1    
   103   52  113 1    
   104   53  114 1    
   105   53  115 1    
   106   53  116 1    
   107   54   55 am   BACKBONE|DICT|INTERRES
   108   54  117 1    
   109   55   56 2    
   110   55   57 1    
   111   57   58 1    
   112   57   59 1    
   113   57  118 1    
   114   58  119 1    
   115   58  120 1    
   116   58  121 1    
   117   59   60 am   BACKBONE|DICT|INTERRES
   118   59  122 1    
   119   60   61 2    
   120   60   62 1    
   121   62   63 1    
   122   62   64 1    
   123   62  123 1    
   124   63  124 1    
   125   63  125 1    
   126   63  126 1    
   127   64   65 am   BACKBONE|DICT|INTERRES
   128   64  127 1    
   129   65   66 2    
@<TRIPOS>SUBSTRUCTURE
     1 UNK         1 GROUP             0       ****    0 ROOT    
