@<TRIPOS>MOLECULE
3R135
127   129    1
SMALL
USER_CHARGES


@<TRIPOS>ATOM
      1 CA        -84.0694   28.9347  -76.4874 C.3       0 UNK        -0.1998 
      2 C         -82.6381   28.6629  -76.0501 C.2       0 UNK         0.4909 
      3 O         -81.7485   29.4648  -76.3326 O.2       0 UNK        -0.5240 
      4 N         -82.4047   27.5292  -75.3752 N.am      1 UNK        -0.4739 
      5 CA        -81.0958   27.1053  -74.8580 C.3       1 UNK         0.0864 
      6 C6        -81.2493   26.3672  -73.5008 C.3       11 UNK        -0.0881 
      7 S7        -79.7267   26.3978  -72.4974 S.3       11 UNK        -0.2682 
      8 C8        -79.9072   27.9373  -71.5384 C.3       11 UNK         0.0289 
      9 C9        -78.5521   28.3898  -71.0110 C.ar      11 UNK        -0.0687 
     10 C10       -77.8197   27.5494  -70.1695 C.ar      11 UNK        -0.0823 
     11 C11       -76.5206   27.8853  -69.7820 C.ar      11 UNK        -0.0830 
     12 C12       -75.9861   29.1157  -70.1696 C.ar      11 UNK        -0.1021 
     13 C13       -76.7199   29.9846  -70.9827 C.ar      11 UNK        -0.0753 
     14 C14       -78.0021   29.6151  -71.4031 C.ar      11 UNK        -0.0933 
     15 C15       -76.1200   31.3123  -71.4228 C.3       11 UNK         0.0166 
     16 S16       -75.0964   31.1275  -72.9181 S.3       11 UNK        -0.2615 
     17 C17       -73.6096   30.3041  -72.2460 C.3       11 UNK        -0.0865 
     18 CA        -72.3222   30.6546  -73.0360 C.3       10 UNK         0.0862 
     19 C         -71.0474   30.1365  -72.3017 C.2       10 UNK         0.5551 
     20 N         -70.1828   29.3387  -72.9190 N.am      10 UNK        -0.7319 
     21 O         -70.8329   30.4769  -71.1410 O.2       10 UNK        -0.5018 
     22 N         -72.4302   30.2308  -74.4386 N.am      10 UNK        -0.4509 
     23 C         -71.7187   30.7279  -75.4562 C.2       10 UNK         0.4899 
     24 O         -70.9437   31.6804  -75.3558 O.2       10 UNK        -0.4839 
     25 CA        -71.8981   30.0046  -76.8041 C.3       9 UNK         0.0222 
     26 CB        -70.8217   30.3817  -77.8443 C.3       9 UNK        -0.1966 
     27 N         -71.9908   28.5467  -76.6416 N.am      9 UNK        -0.4218 
     28 C         -71.0604   27.7214  -76.1303 C.2       9 UNK         0.5020 
     29 O         -69.9603   28.1092  -75.7344 O.2       9 UNK        -0.5274 
     30 CA        -71.4112   26.2241  -75.9837 C.3       8 UNK         0.0270 
     31 CB        -71.0731   25.7156  -74.5704 C.3       8 UNK        -0.1976 
     32 N         -72.8177   25.9274  -76.2657 N.am      8 UNK        -0.4313 
     33 C         -73.3492   25.7975  -77.4906 C.2       8 UNK         0.5041 
     34 O         -72.6810   25.8044  -78.5246 O.2       8 UNK        -0.5577 
     35 CA        -74.8839   25.6938  -77.5920 C.3       7 UNK         0.0284 
     36 CB        -75.3005   24.2473  -77.8972 C.3       7 UNK        -0.1958 
     37 N         -75.5896   26.1743  -76.3963 N.am      7 UNK        -0.4454 
     38 C         -75.5582   27.4425  -75.9526 C.2       7 UNK         0.5089 
     39 O         -74.9696   28.3481  -76.5444 O.2       7 UNK        -0.5125 
     40 CA        -76.2359   27.7589  -74.6060 C.3       6 UNK         0.0408 
     41 CB        -77.5457   28.5211  -74.8441 C.3       6 UNK        -0.1791 
     42 N         -76.4561   26.5798  -73.7557 N.am      6 UNK        -0.4762 
     43 C         -75.4517   25.8720  -73.2121 C.2       6 UNK         0.5007 
     44 O         -74.2660   26.1491  -73.4077 O.2       6 UNK        -0.5032 
     45 CA        -75.7925   24.5963  -72.4021 C.3       5 UNK         0.0783 
     46 C46       -75.8266   24.7647  -70.8541 C.3       11 UNK        -0.0857 
     47 S47       -74.6156   25.8949  -70.0731 S.3       11 UNK        -0.2512 
     48 C48       -75.6773   26.9045  -68.9822 C.3       11 UNK         0.0225 
     49 N         -77.0036   23.8924  -72.8456 N.am      5 UNK        -0.4615 
     50 C         -77.2642   23.4200  -74.0708 C.2       4 UNK         0.5053 
     51 O         -76.5700   23.6632  -75.0570 O.2       4 UNK        -0.5105 
     52 CA        -78.4634   22.4650  -74.2037 C.3       4 UNK         0.0263 
     53 CB        -79.4424   22.4857  -73.0092 C.3       4 UNK        -0.1981 
     54 N         -79.1977   22.7238  -75.4405 N.am      4 UNK        -0.4224 
     55 C         -79.7493   21.7740  -76.2109 C.2       3 UNK         0.4895 
     56 O         -79.6238   20.5682  -75.9894 O.2       3 UNK        -0.5091 
     57 CA        -80.6215   22.2064  -77.4074 C.3       3 UNK         0.0250 
     58 CB        -82.0713   21.7257  -77.2185 C.3       3 UNK        -0.1996 
     59 N         -80.6396   23.6530  -77.6195 N.am      3 UNK        -0.4254 
     60 C         -79.7425   24.3351  -78.3410 C.2       2 UNK         0.5004 
     61 O         -78.8407   23.8056  -78.9900 O.2       2 UNK        -0.5226 
     62 CA        -79.8642   25.8708  -78.3320 C.3       2 UNK         0.0269 
     63 CB        -80.4988   26.3677  -79.6410 C.3       2 UNK        -0.1926 
     64 N         -80.6148   26.4283  -77.1967 N.am      2 UNK        -0.4687 
     65 C         -80.2640   26.3205  -75.9063 C.2       1 UNK         0.5165 
     66 O         -79.3094   25.6329  -75.5445 O.2       1 UNK        -0.5079 
     67 H67       -84.1203   29.0242  -77.5722 H         1 UNK         0.0900 
     68 H68       -84.7484   28.1394  -76.1803 H         1 UNK         0.0900 
     69 H69       -84.4228   29.8688  -76.0517 H         1 UNK         0.0900 
     70 H70       -83.1728   26.8980  -75.1916 H         1 UNK         0.2959 
     71 H71       -80.5195   28.0112  -74.6598 H         1 UNK         0.1079 
     72 H72       -82.0440   26.8226  -72.9073 H         1 UNK         0.0837 
     73 H73       -81.5511   25.3296  -73.6543 H         1 UNK         0.0837 
     74 H74       -80.5934   27.7729  -70.7066 H         1 UNK         0.0685 
     75 H75       -80.3507   28.7094  -72.1689 H         1 UNK         0.0685 
     76 H76       -78.2504   26.6063  -69.8643 H         1 UNK         0.1434 
     77 H77       -74.9864   29.3824  -69.8576 H         1 UNK         0.1329 
     78 H78       -78.5602   30.2726  -72.0554 H         1 UNK         0.1335 
     79 H79       -76.9168   32.0273  -71.6334 H         1 UNK         0.0680 
     80 H80       -75.5287   31.7492  -70.6167 H         1 UNK         0.0680 
     81 H81       -73.7761   29.2247  -72.2365 H         1 UNK         0.1032 
     82 H82       -73.4950   30.6061  -71.2037 H         1 UNK         0.1032 
     83 H83       -72.2306   31.7425  -73.0336 H         1 UNK         0.0461 
     84 H84       -69.3668   29.0256  -72.4181 H         1 UNK         0.3453 
     85 H85       -70.3069   29.0714  -73.8873 H         1 UNK         0.3453 
     86 H86       -73.0502   29.4560  -74.6209 H         1 UNK         0.2984 
     87 H87       -72.8632   30.3281  -77.1967 H         1 UNK         0.0554 
     88 H88       -70.8434   31.4510  -78.0579 H         1 UNK         0.0847 
     89 H89       -70.9822   29.8606  -78.7880 H         1 UNK         0.0847 
     90 H90       -69.8169   30.1421  -77.4952 H         1 UNK         0.0847 
     91 H91       -72.8949   28.1532  -76.8787 H         1 UNK         0.3141 
     92 H92       -70.7892   25.6784  -76.6962 H         1 UNK         0.0743 
     93 H93       -70.0059   25.8081  -74.3645 H         1 UNK         0.0784 
     94 H94       -71.6010   26.2808  -73.8012 H         1 UNK         0.0784 
     95 H95       -71.3327   24.6635  -74.4519 H         1 UNK         0.0784 
     96 H96       -73.4402   25.9174  -75.4650 H         1 UNK         0.3213 
     97 H97       -75.1978   26.3213  -78.4289 H         1 UNK         0.0855 
     98 H98       -74.9373   23.5543  -77.1375 H         1 UNK         0.0814 
     99 H99       -74.8954   23.9192  -78.8552 H         1 UNK         0.0814 
    100 H100      -76.3841   24.1465  -77.9510 H         1 UNK         0.0814 
    101 H101      -76.0752   25.4724  -75.8435 H         1 UNK         0.3105 
    102 H102      -75.5680   28.4212  -74.0531 H         1 UNK         0.0547 
    103 H103      -78.1354   28.0685  -75.6379 H         1 UNK         0.0837 
    104 H104      -77.3362   29.5458  -75.1532 H         1 UNK         0.0837 
    105 H105      -78.1583   28.5731  -73.9477 H         1 UNK         0.0837 
    106 H106      -77.4121   26.2819  -73.6048 H         1 UNK         0.3020 
    107 H107      -74.9649   23.9168  -72.6182 H         1 UNK         0.1245 
    108 H108      -75.6887   23.7861  -70.3917 H         1 UNK         0.0781 
    109 H109      -76.8258   25.0693  -70.5527 H         1 UNK         0.0781 
    110 H110      -75.0443   27.4510  -68.2815 H         1 UNK         0.0836 
    111 H111      -76.3091   26.2536  -68.3756 H         1 UNK         0.0836 
    112 H112      -77.6621   23.6615  -72.1168 H         1 UNK         0.3022 
    113 H113      -78.0206   21.4682  -74.2525 H         1 UNK         0.0747 
    114 H114      -79.8889   23.4700  -72.8702 H         1 UNK         0.0793 
    115 H115      -80.2569   21.7771  -73.1603 H         1 UNK         0.0793 
    116 H116      -78.9524   22.2000  -72.0778 H         1 UNK         0.0793 
    117 H117      -79.2730   23.7044  -75.7002 H         1 UNK         0.3047 
    118 H118      -80.2153   21.7175  -78.2956 H         1 UNK         0.0822 
    119 H119      -82.6909   21.9861  -78.0770 H         1 UNK         0.0807 
    120 H120      -82.5286   22.1605  -76.3287 H         1 UNK         0.0807 
    121 H121      -82.1146   20.6411  -77.1096 H         1 UNK         0.0807 
    122 H122      -81.3471   24.1775  -77.1262 H         1 UNK         0.2946 
    123 H123      -78.8456   26.2620  -78.2734 H         1 UNK         0.1144 
    124 H124      -80.4937   27.4565  -79.6971 H         1 UNK         0.0793 
    125 H125      -81.5308   26.0295  -79.7425 H         1 UNK         0.0793 
    126 H126      -79.9481   25.9989  -80.5078 H         1 UNK         0.0793 
    127 H127      -81.4055   27.0158  -77.4192 H         1 UNK         0.2896 
@<TRIPOS>BOND
     1    1    2 1    
     2    1   67 1    
     3    1   68 1    
     4    1   69 1    
     5    2    3 2    
     6    2    4 am   BACKBONE|DICT|INTERRES
     7    4    5 1    
     8    4   70 1    
     9    5    6 1    
    10    5   65 1    
    11    5   71 1    
    12    6    7 1    
    13    6   72 1    
    14    6   73 1    
    15    7    8 1    
    16    8    9 1    
    17    8   74 1    
    18    8   75 1    
    19    9   10 ar   
    20    9   14 ar   
    21   10   11 ar   
    22   10   76 1    
    23   11   12 ar   
    24   11   48 1    
    25   12   13 ar   
    26   12   77 1    
    27   13   14 ar   
    28   13   15 1    
    29   14   78 1    
    30   15   16 1    
    31   15   79 1    
    32   15   80 1    
    33   16   17 1    
    34   17   18 1    
    35   17   81 1    
    36   17   82 1    
    37   18   19 1    
    38   18   22 1    
    39   18   83 1    
    40   19   20 am   BACKBONE|DICT|INTERRES
    41   19   21 2    
    42   20   84 1    
    43   20   85 1    
    44   22   23 am   BACKBONE|DICT|INTERRES
    45   22   86 1    
    46   23   24 2    
    47   23   25 1    
    48   25   26 1    
    49   25   27 1    
    50   25   87 1    
    51   26   88 1    
    52   26   89 1    
    53   26   90 1    
    54   27   28 am   BACKBONE|DICT|INTERRES
    55   27   91 1    
    56   28   29 2    
    57   28   30 1    
    58   30   31 1    
    59   30   32 1    
    60   30   92 1    
    61   31   93 1    
    62   31   94 1    
    63   31   95 1    
    64   32   33 am   BACKBONE|DICT|INTERRES
    65   32   96 1    
    66   33   34 2    
    67   33   35 1    
    68   35   36 1    
    69   35   37 1    
    70   35   97 1    
    71   36   98 1    
    72   36   99 1    
    73   36  100 1    
    74   37   38 am   BACKBONE|DICT|INTERRES
    75   37  101 1    
    76   38   39 2    
    77   38   40 1    
    78   40   41 1    
    79   40   42 1    
    80   40  102 1    
    81   41  103 1    
    82   41  104 1    
    83   41  105 1    
    84   42   43 am   BACKBONE|DICT|INTERRES
    85   42  106 1    
    86   43   44 2    
    87   43   45 1    
    88   45   46 1    
    89   45   49 1    
    90   45  107 1    
    91   46   47 1    
    92   46  108 1    
    93   46  109 1    
    94   47   48 1    
    95   48  110 1    
    96   48  111 1    
    97   49   50 am   BACKBONE|DICT|INTERRES
    98   49  112 1    
    99   50   51 2    
   100   50   52 1    
   101   52   53 1    
   102   52   54 1    
   103   52  113 1    
   104   53  114 1    
   105   53  115 1    
   106   53  116 1    
   107   54   55 am   BACKBONE|DICT|INTERRES
   108   54  117 1    
   109   55   56 2    
   110   55   57 1    
   111   57   58 1    
   112   57   59 1    
   113   57  118 1    
   114   58  119 1    
   115   58  120 1    
   116   58  121 1    
   117   59   60 am   BACKBONE|DICT|INTERRES
   118   59  122 1    
   119   60   61 2    
   120   60   62 1    
   121   62   63 1    
   122   62   64 1    
   123   62  123 1    
   124   63  124 1    
   125   63  125 1    
   126   63  126 1    
   127   64   65 am   BACKBONE|DICT|INTERRES
   128   64  127 1    
   129   65   66 2    
@<TRIPOS>SUBSTRUCTURE
     1 UNK         1 GROUP             0       ****    0 ROOT    
