@<TRIPOS>MOLECULE
3R135
127   129    1
SMALL
USER_CHARGES


@<TRIPOS>ATOM
      1 CA        -84.3018   24.1659  -70.6075 C.3       0 UNK        -0.1998 
      2 C         -84.1305   25.3412  -71.5580 C.2       0 UNK         0.4909 
      3 O         -85.0744   25.7016  -72.2619 O.2       0 UNK        -0.5240 
      4 N         -82.9328   25.9420  -71.5833 N.am      1 UNK        -0.4739 
      5 CA        -82.5820   27.0726  -72.4560 C.3       1 UNK         0.0864 
      6 C6        -81.3155   27.8020  -71.9394 C.3       11 UNK        -0.0881 
      7 S7        -81.3569   29.5967  -72.2625 S.3       11 UNK        -0.2682 
      8 C8        -80.1093   30.1977  -71.0790 C.3       11 UNK         0.0289 
      9 C9        -78.7117   29.7455  -71.4734 C.ar      11 UNK        -0.0687 
     10 C10       -78.1765   28.5679  -70.9437 C.ar      11 UNK        -0.0823 
     11 C11       -76.9196   28.1130  -71.3513 C.ar      11 UNK        -0.0830 
     12 C12       -76.1849   28.8676  -72.2711 C.ar      11 UNK        -0.1021 
     13 C13       -76.6874   30.0739  -72.7751 C.ar      11 UNK        -0.0753 
     14 C14       -77.9593   30.4985  -72.3794 C.ar      11 UNK        -0.0933 
     15 C15       -75.8810   30.9135  -73.7625 C.3       11 UNK         0.0166 
     16 S16       -74.1375   31.0993  -73.2651 S.3       11 UNK        -0.2615 
     17 C17       -73.4408   31.9618  -74.7157 C.3       11 UNK        -0.0865 
     18 CA        -72.9282   30.9983  -75.8292 C.3       10 UNK         0.0862 
     19 C         -72.3885   31.7579  -77.0785 C.2       10 UNK         0.5551 
     20 N         -71.3932   31.2383  -77.7868 N.am      10 UNK        -0.7319 
     21 O         -72.8969   32.8196  -77.4314 O.2       10 UNK        -0.5018 
     22 N         -72.0468   29.9210  -75.3350 N.am      10 UNK        -0.4509 
     23 C         -70.8831   30.0882  -74.6924 C.2       10 UNK         0.4899 
     24 O         -70.3778   31.1941  -74.4950 O.2       10 UNK        -0.4839 
     25 CA        -70.1439   28.8445  -74.1619 C.3       9 UNK         0.0222 
     26 CB        -69.8104   29.0139  -72.6618 C.3       9 UNK        -0.1966 
     27 N         -70.8485   27.5694  -74.3696 N.am      9 UNK        -0.4218 
     28 C         -70.2363   26.3743  -74.3435 C.2       9 UNK         0.5020 
     29 O         -69.0142   26.2342  -74.2625 O.2       9 UNK        -0.5274 
     30 CA        -71.1200   25.1148  -74.3768 C.3       8 UNK         0.0270 
     31 CB        -71.7176   24.8374  -72.9870 C.3       8 UNK        -0.1976 
     32 N         -72.1858   25.1803  -75.3772 N.am      8 UNK        -0.4313 
     33 C         -71.9782   25.0735  -76.6996 C.2       8 UNK         0.5041 
     34 O         -70.8672   24.8829  -77.1971 O.2       8 UNK        -0.5577 
     35 CA        -73.1950   25.1866  -77.6428 C.3       7 UNK         0.0284 
     36 CB        -73.6184   23.7933  -78.1366 C.3       7 UNK        -0.1958 
     37 N         -74.3620   25.8608  -77.0688 N.am      7 UNK        -0.4454 
     38 C         -74.3731   27.1078  -76.5839 C.2       7 UNK         0.5089 
     39 O         -73.3958   27.8528  -76.6060 O.2       7 UNK        -0.5125 
     40 CA        -75.6568   27.5768  -75.8811 C.3       6 UNK         0.0408 
     41 CB        -76.6012   28.2748  -76.8696 C.3       6 UNK        -0.1791 
     42 N         -76.3705   26.5073  -75.1762 N.am      6 UNK        -0.4762 
     43 C         -75.8556   25.7746  -74.1756 C.2       6 UNK         0.5007 
     44 O         -74.7011   25.8942  -73.7653 O.2       6 UNK        -0.5032 
     45 CA        -76.7769   24.6995  -73.5740 C.3       5 UNK         0.0783 
     46 C46       -77.8841   25.3304  -72.6871 C.3       11 UNK        -0.0857 
     47 S47       -77.4538   25.3816  -70.9158 S.3       11 UNK        -0.2512 
     48 C48       -76.3366   26.8218  -70.7869 C.3       11 UNK         0.0225 
     49 N         -77.3350   23.8820  -74.6523 N.am      5 UNK        -0.4615 
     50 C         -76.6492   22.9423  -75.3203 C.2       4 UNK         0.5053 
     51 O         -75.5161   22.5770  -75.0092 O.2       4 UNK        -0.5105 
     52 CA        -77.3226   22.3122  -76.5552 C.3       4 UNK         0.0263 
     53 CB        -78.0001   20.9854  -76.1771 C.3       4 UNK        -0.1981 
     54 N         -78.3057   23.1884  -77.1976 N.am      4 UNK        -0.4224 
     55 C         -78.0247   24.3635  -77.7799 C.2       3 UNK         0.4895 
     56 O         -76.8829   24.7970  -77.9230 O.2       3 UNK        -0.5091 
     57 CA        -79.2185   25.2305  -78.2225 C.3       3 UNK         0.0250 
     58 CB        -79.5157   25.0119  -79.7141 C.3       3 UNK        -0.1996 
     59 N         -80.4419   25.0071  -77.4403 N.am      3 UNK        -0.4254 
     60 C         -80.5518   25.1872  -76.1160 C.2       2 UNK         0.5004 
     61 O         -79.6212   25.5640  -75.3981 O.2       2 UNK        -0.5226 
     62 CA        -81.8965   24.7831  -75.4911 C.3       2 UNK         0.0269 
     63 CB        -81.9769   23.2529  -75.3509 C.3       2 UNK        -0.1926 
     64 N         -82.0900   25.3768  -74.1686 N.am      2 UNK        -0.4687 
     65 C         -82.4328   26.6518  -73.9374 C.2       1 UNK         0.5165 
     66 O         -82.6570   27.4680  -74.8331 O.2       1 UNK        -0.5079 
     67 H67       -84.5636   23.2674  -71.1656 H         1 UNK         0.0900 
     68 H68       -85.1024   24.3715  -69.8975 H         1 UNK         0.0900 
     69 H69       -83.3924   23.9614  -70.0426 H         1 UNK         0.0900 
     70 H70       -82.1983   25.6060  -70.9764 H         1 UNK         0.2959 
     71 H71       -83.4227   27.7694  -72.4140 H         1 UNK         0.1079 
     72 H72       -80.4029   27.3747  -72.3604 H         1 UNK         0.0837 
     73 H73       -81.2301   27.6777  -70.8586 H         1 UNK         0.0837 
     74 H74       -80.1495   31.2875  -71.0465 H         1 UNK         0.0685 
     75 H75       -80.3570   29.8542  -70.0734 H         1 UNK         0.0685 
     76 H76       -78.7491   27.9888  -70.2322 H         1 UNK         0.1434 
     77 H77       -75.2101   28.5218  -72.5877 H         1 UNK         0.1329 
     78 H78       -78.3720   31.4134  -72.7825 H         1 UNK         0.1335 
     79 H79       -75.9374   30.4585  -74.7506 H         1 UNK         0.0680 
     80 H80       -76.3161   31.9097  -73.8577 H         1 UNK         0.0680 
     81 H81       -72.6288   32.6025  -74.3684 H         1 UNK         0.1032 
     82 H82       -74.1981   32.6394  -75.1143 H         1 UNK         0.1032 
     83 H83       -73.8089   30.4776  -76.2053 H         1 UNK         0.0461 
     84 H84       -70.9831   30.3595  -77.5144 H         1 UNK         0.3453 
     85 H85       -71.0536   31.7275  -78.5998 H         1 UNK         0.3453 
     86 H86       -72.3661   28.9922  -75.5935 H         1 UNK         0.2984 
     87 H87       -69.2045   28.8084  -74.7188 H         1 UNK         0.0554 
     88 H88       -69.2629   29.9393  -72.4762 H         1 UNK         0.0847 
     89 H89       -70.7162   29.0436  -72.0538 H         1 UNK         0.0847 
     90 H90       -69.1852   28.2017  -72.2912 H         1 UNK         0.0847 
     91 H91       -71.8562   27.5997  -74.4380 H         1 UNK         0.3141 
     92 H92       -70.4782   24.2682  -74.6314 H         1 UNK         0.0743 
     93 H93       -70.9284   24.6812  -72.2503 H         1 UNK         0.0784 
     94 H94       -72.3290   25.6680  -72.6325 H         1 UNK         0.0784 
     95 H95       -72.3392   23.9416  -72.9918 H         1 UNK         0.0784 
     96 H96       -73.1271   25.3422  -75.0338 H         1 UNK         0.3213 
     97 H97       -72.8755   25.7742  -78.5059 H         1 UNK         0.0855 
     98 H98       -72.7816   23.2712  -78.6028 H         1 UNK         0.0814 
     99 H99       -74.4123   23.8590  -78.8809 H         1 UNK         0.0814 
    100 H100      -73.9770   23.1694  -77.3172 H         1 UNK         0.0814 
    101 H101      -75.2428   25.3529  -77.0926 H         1 UNK         0.3105 
    102 H102      -75.3524   28.3021  -75.1267 H         1 UNK         0.0547 
    103 H103      -76.1058   29.1211  -77.3474 H         1 UNK         0.0837 
    104 H104      -76.9257   27.5999  -77.6617 H         1 UNK         0.0837 
    105 H105      -77.4889   28.6606  -76.3678 H         1 UNK         0.0837 
    106 H106      -77.3262   26.3293  -75.4575 H         1 UNK         0.3020 
    107 H107      -76.1576   24.0466  -72.9539 H         1 UNK         0.1245 
    108 H108      -78.7915   24.7273  -72.7477 H         1 UNK         0.0781 
    109 H109      -78.1883   26.3205  -73.0326 H         1 UNK         0.0781 
    110 H110      -75.3908   26.5770  -71.2714 H         1 UNK         0.0836 
    111 H111      -76.0994   26.9813  -69.7344 H         1 UNK         0.0836 
    112 H112      -78.2455   24.1705  -74.9936 H         1 UNK         0.3022 
    113 H113      -76.5367   22.1028  -77.2841 H         1 UNK         0.0747 
    114 H114      -78.4099   20.4841  -77.0542 H         1 UNK         0.0793 
    115 H115      -77.2857   20.2996  -75.7192 H         1 UNK         0.0793 
    116 H116      -78.8118   21.1344  -75.4636 H         1 UNK         0.0793 
    117 H117      -79.2729   22.9071  -77.1378 H         1 UNK         0.3047 
    118 H118      -78.9296   26.2736  -78.0813 H         1 UNK         0.0822 
    119 H119      -80.2921   25.6903  -80.0685 H         1 UNK         0.0807 
    120 H120      -79.8416   23.9910  -79.9170 H         1 UNK         0.0807 
    121 H121      -78.6270   25.1966  -80.3197 H         1 UNK         0.0807 
    122 H122      -81.2480   24.6806  -77.9545 H         1 UNK         0.2946 
    123 H123      -82.7007   25.1253  -76.1470 H         1 UNK         0.1144 
    124 H124      -82.9279   22.9454  -74.9151 H         1 UNK         0.0793 
    125 H125      -81.1779   22.8617  -74.7193 H         1 UNK         0.0793 
    126 H126      -81.8975   22.7601  -76.3207 H         1 UNK         0.0793 
    127 H127      -81.9103   24.7831  -73.3730 H         1 UNK         0.2896 
@<TRIPOS>BOND
     1    1    2 1    
     2    1   67 1    
     3    1   68 1    
     4    1   69 1    
     5    2    3 2    
     6    2    4 am   BACKBONE|DICT|INTERRES
     7    4    5 1    
     8    4   70 1    
     9    5    6 1    
    10    5   65 1    
    11    5   71 1    
    12    6    7 1    
    13    6   72 1    
    14    6   73 1    
    15    7    8 1    
    16    8    9 1    
    17    8   74 1    
    18    8   75 1    
    19    9   10 ar   
    20    9   14 ar   
    21   10   11 ar   
    22   10   76 1    
    23   11   12 ar   
    24   11   48 1    
    25   12   13 ar   
    26   12   77 1    
    27   13   14 ar   
    28   13   15 1    
    29   14   78 1    
    30   15   16 1    
    31   15   79 1    
    32   15   80 1    
    33   16   17 1    
    34   17   18 1    
    35   17   81 1    
    36   17   82 1    
    37   18   19 1    
    38   18   22 1    
    39   18   83 1    
    40   19   20 am   BACKBONE|DICT|INTERRES
    41   19   21 2    
    42   20   84 1    
    43   20   85 1    
    44   22   23 am   BACKBONE|DICT|INTERRES
    45   22   86 1    
    46   23   24 2    
    47   23   25 1    
    48   25   26 1    
    49   25   27 1    
    50   25   87 1    
    51   26   88 1    
    52   26   89 1    
    53   26   90 1    
    54   27   28 am   BACKBONE|DICT|INTERRES
    55   27   91 1    
    56   28   29 2    
    57   28   30 1    
    58   30   31 1    
    59   30   32 1    
    60   30   92 1    
    61   31   93 1    
    62   31   94 1    
    63   31   95 1    
    64   32   33 am   BACKBONE|DICT|INTERRES
    65   32   96 1    
    66   33   34 2    
    67   33   35 1    
    68   35   36 1    
    69   35   37 1    
    70   35   97 1    
    71   36   98 1    
    72   36   99 1    
    73   36  100 1    
    74   37   38 am   BACKBONE|DICT|INTERRES
    75   37  101 1    
    76   38   39 2    
    77   38   40 1    
    78   40   41 1    
    79   40   42 1    
    80   40  102 1    
    81   41  103 1    
    82   41  104 1    
    83   41  105 1    
    84   42   43 am   BACKBONE|DICT|INTERRES
    85   42  106 1    
    86   43   44 2    
    87   43   45 1    
    88   45   46 1    
    89   45   49 1    
    90   45  107 1    
    91   46   47 1    
    92   46  108 1    
    93   46  109 1    
    94   47   48 1    
    95   48  110 1    
    96   48  111 1    
    97   49   50 am   BACKBONE|DICT|INTERRES
    98   49  112 1    
    99   50   51 2    
   100   50   52 1    
   101   52   53 1    
   102   52   54 1    
   103   52  113 1    
   104   53  114 1    
   105   53  115 1    
   106   53  116 1    
   107   54   55 am   BACKBONE|DICT|INTERRES
   108   54  117 1    
   109   55   56 2    
   110   55   57 1    
   111   57   58 1    
   112   57   59 1    
   113   57  118 1    
   114   58  119 1    
   115   58  120 1    
   116   58  121 1    
   117   59   60 am   BACKBONE|DICT|INTERRES
   118   59  122 1    
   119   60   61 2    
   120   60   62 1    
   121   62   63 1    
   122   62   64 1    
   123   62  123 1    
   124   63  124 1    
   125   63  125 1    
   126   63  126 1    
   127   64   65 am   BACKBONE|DICT|INTERRES
   128   64  127 1    
   129   65   66 2    
@<TRIPOS>SUBSTRUCTURE
     1 UNK         1 GROUP             0       ****    0 ROOT    
