@<TRIPOS>MOLECULE
3R135
127   129    1
SMALL
USER_CHARGES


@<TRIPOS>ATOM
      1 CA        -80.5851   32.0266  -73.3352 C.3       0 UNK        -0.1998 
      2 C         -80.8124   30.5263  -73.2289 C.2       0 UNK         0.4909 
      3 O         -81.9100   30.0544  -73.5274 O.2       0 UNK        -0.5240 
      4 N         -79.7783   29.7838  -72.8089 N.am      1 UNK        -0.4739 
      5 CA        -79.7554   28.3209  -72.6396 C.3       1 UNK         0.0864 
      6 C6        -80.7414   27.7857  -71.5562 C.3       11 UNK        -0.0881 
      7 S7        -80.7400   28.7391  -69.9936 S.3       11 UNK        -0.2682 
      8 C8        -79.4990   27.8623  -68.9863 C.3       11 UNK         0.0289 
      9 C9        -78.1081   27.8956  -69.6068 C.ar      11 UNK        -0.0687 
     10 C10       -77.3982   26.7081  -69.7946 C.ar      11 UNK        -0.0823 
     11 C11       -76.1331   26.7188  -70.3906 C.ar      11 UNK        -0.0830 
     12 C12       -75.5822   27.9326  -70.8162 C.ar      11 UNK        -0.1021 
     13 C13       -76.2748   29.1313  -70.6146 C.ar      11 UNK        -0.0753 
     14 C14       -77.5263   29.1068  -69.9923 C.ar      11 UNK        -0.0933 
     15 C15       -75.6720   30.4623  -71.0365 C.3       11 UNK         0.0166 
     16 S16       -76.6311   31.2311  -72.3834 S.3       11 UNK        -0.2615 
     17 C17       -75.4748   31.1953  -73.7971 C.3       11 UNK        -0.0865 
     18 CA        -75.8374   30.1387  -74.8811 C.3       10 UNK         0.0862 
     19 C         -77.0069   30.5932  -75.8074 C.2       10 UNK         0.5551 
     20 N         -76.8668   30.5780  -77.1268 N.am      10 UNK        -0.7319 
     21 O         -78.0917   30.8994  -75.3235 O.2       10 UNK        -0.5018 
     22 N         -74.6469   29.6349  -75.5872 N.am      10 UNK        -0.4509 
     23 C         -73.7475   30.3597  -76.2687 C.2       10 UNK         0.4899 
     24 O         -73.8077   31.5826  -76.4002 O.2       10 UNK        -0.4839 
     25 CA        -72.5996   29.5706  -76.9287 C.3       9 UNK         0.0222 
     26 CB        -71.3726   30.4472  -77.2598 C.3       9 UNK        -0.1966 
     27 N         -72.2153   28.3770  -76.1640 N.am      9 UNK        -0.4218 
     28 C         -71.6853   28.3357  -74.9285 C.2       9 UNK         0.5020 
     29 O         -71.4022   29.3375  -74.2705 O.2       9 UNK        -0.5274 
     30 CA        -71.4606   26.9496  -74.2886 C.3       8 UNK         0.0270 
     31 CB        -72.4283   26.7465  -73.1096 C.3       8 UNK        -0.1976 
     32 N         -71.6157   25.8338  -75.2253 N.am      8 UNK        -0.4313 
     33 C         -70.7575   25.5239  -76.2064 C.2       8 UNK         0.5041 
     34 O         -69.6738   26.0851  -76.3695 O.2       8 UNK        -0.5577 
     35 CA        -71.1947   24.4270  -77.1942 C.3       7 UNK         0.0284 
     36 CB        -70.5047   23.0953  -76.8576 C.3       7 UNK        -0.1958 
     37 N         -72.6455   24.2104  -77.2586 N.am      7 UNK        -0.4454 
     38 C         -73.5681   25.0974  -77.6544 C.2       7 UNK         0.5089 
     39 O         -73.3091   26.2651  -77.9462 O.2       7 UNK        -0.5125 
     40 CA        -75.0281   24.6081  -77.7013 C.3       6 UNK         0.0408 
     41 CB        -75.1930   23.3887  -78.6322 C.3       6 UNK        -0.1791 
     42 N         -75.6153   24.3577  -76.3775 N.am      6 UNK        -0.4762 
     43 C         -75.2355   23.4562  -75.4560 C.2       6 UNK         0.5007 
     44 O         -74.2955   22.6750  -75.6079 O.2       6 UNK        -0.5032 
     45 CA        -76.0424   23.3966  -74.1502 C.3       5 UNK         0.0783 
     46 C46       -75.6312   24.5277  -73.1799 C.3       11 UNK        -0.0857 
     47 S47       -76.2401   24.1745  -71.5025 S.3       11 UNK        -0.2512 
     48 C48       -75.3502   25.4198  -70.5178 C.3       11 UNK         0.0225 
     49 N         -77.4745   23.4133  -74.4519 N.am      5 UNK        -0.4615 
     50 C         -78.2983   22.3696  -74.2861 C.2       4 UNK         0.5053 
     51 O         -77.9675   21.3034  -73.7661 O.2       4 UNK        -0.5105 
     52 CA        -79.7361   22.5255  -74.8154 C.3       4 UNK         0.0263 
     53 CB        -80.6726   23.0059  -73.6957 C.3       4 UNK        -0.1981 
     54 N         -79.8191   23.4405  -75.9573 N.am      4 UNK        -0.4224 
     55 C         -79.2574   23.2050  -77.1534 C.2       3 UNK         0.4895 
     56 O         -78.7303   22.1341  -77.4562 O.2       3 UNK        -0.5091 
     57 CA        -79.2524   24.3454  -78.1881 C.3       3 UNK         0.0250 
     58 CB        -80.1775   24.0054  -79.3685 C.3       3 UNK        -0.1996 
     59 N         -79.6132   25.6687  -77.6711 N.am      3 UNK        -0.4254 
     60 C         -78.9505   26.3785  -76.7471 C.2       2 UNK         0.5004 
     61 O         -77.9574   25.9597  -76.1432 O.2       2 UNK        -0.5226 
     62 CA        -79.4834   27.7994  -76.4678 C.3       2 UNK         0.0269 
     63 CB        -80.9262   28.0432  -76.9685 C.3       2 UNK        -0.1926 
     64 N         -79.3801   28.2030  -75.0628 N.am      2 UNK        -0.4687 
     65 C         -79.8950   27.5798  -73.9911 C.2       1 UNK         0.5165 
     66 O         -80.4751   26.4934  -74.0458 O.2       1 UNK        -0.5079 
     67 H67       -79.5758   32.3070  -73.0336 H         1 UNK         0.0900 
     68 H68       -80.7303   32.3535  -74.3645 H         1 UNK         0.0900 
     69 H69       -81.2914   32.5613  -72.7009 H         1 UNK         0.0900 
     70 H70       -78.9025   30.2486  -72.6048 H         1 UNK         0.2959 
     71 H71       -78.7458   28.0822  -72.3057 H         1 UNK         0.1079 
     72 H72       -80.5249   26.7395  -71.3319 H         1 UNK         0.0837 
     73 H73       -81.7627   27.8022  -71.9408 H         1 UNK         0.0837 
     74 H74       -79.4545   28.3266  -68.0004 H         1 UNK         0.0685 
     75 H75       -79.8350   26.8359  -68.8305 H         1 UNK         0.0685 
     76 H76       -77.8274   25.7682  -69.4746 H         1 UNK         0.1434 
     77 H77       -74.6050   27.9491  -71.2784 H         1 UNK         0.1329 
     78 H78       -78.0632   30.0325  -69.8351 H         1 UNK         0.1335 
     79 H79       -75.6766   31.1379  -70.1800 H         1 UNK         0.0680 
     80 H80       -74.6249   30.3412  -71.3155 H         1 UNK         0.0680 
     81 H81       -74.4668   31.0152  -73.4221 H         1 UNK         0.1032 
     82 H82       -75.4353   32.1939  -74.2363 H         1 UNK         0.1032 
     83 H83       -76.2192   29.2579  -74.3626 H         1 UNK         0.0461 
     84 H84       -75.9843   30.3312  -77.5431 H         1 UNK         0.3453 
     85 H85       -77.6368   30.8700  -77.7069 H         1 UNK         0.3453 
     86 H86       -74.5259   28.6333  -75.5708 H         1 UNK         0.2984 
     87 H87       -72.9977   29.2003  -77.8745 H         1 UNK         0.0554 
     88 H88       -71.6374   31.2421  -77.9580 H         1 UNK         0.0847 
     89 H89       -70.5798   29.8609  -77.7243 H         1 UNK         0.0847 
     90 H90       -70.9606   30.9238  -76.3699 H         1 UNK         0.0847 
     91 H91       -72.4215   27.4974  -76.6285 H         1 UNK         0.3141 
     92 H92       -70.4392   26.9312  -73.9026 H         1 UNK         0.0743 
     93 H93       -73.4699   26.7998  -73.4280 H         1 UNK         0.0784 
     94 H94       -72.2681   25.7841  -72.6232 H         1 UNK         0.0784 
     95 H95       -72.2825   27.5165  -72.3506 H         1 UNK         0.0784 
     96 H96       -72.4684   25.2978  -75.1648 H         1 UNK         0.3213 
     97 H97       -70.8672   24.7424  -78.1870 H         1 UNK         0.0855 
     98 H98       -70.8210   22.7114  -75.8868 H         1 UNK         0.0814 
     99 H99       -69.4205   23.2132  -76.8249 H         1 UNK         0.0814 
    100 H100      -70.7229   22.3343  -77.6072 H         1 UNK         0.0814 
    101 H101      -72.9922   23.3163  -76.9226 H         1 UNK         0.3105 
    102 H102      -75.6153   25.4212  -78.1314 H         1 UNK         0.0547 
    103 H103      -74.8227   23.6117  -79.6336 H         1 UNK         0.0837 
    104 H104      -74.6500   22.5137  -78.2748 H         1 UNK         0.0837 
    105 H105      -76.2395   23.1033  -78.7316 H         1 UNK         0.0837 
    106 H106      -76.4022   24.9659  -76.1568 H         1 UNK         0.3020 
    107 H107      -75.7716   22.4462  -73.6831 H         1 UNK         0.1245 
    108 H108      -76.0088   25.4979  -73.5094 H         1 UNK         0.0781 
    109 H109      -74.5443   24.6082  -73.1277 H         1 UNK         0.0781 
    110 H110      -74.3578   25.5920  -70.9365 H         1 UNK         0.0836 
    111 H111      -75.1883   25.0166  -69.5172 H         1 UNK         0.0836 
    112 H112      -77.8323   24.2476  -74.9020 H         1 UNK         0.3022 
    113 H113      -80.0765   21.5425  -75.1481 H         1 UNK         0.0747 
    114 H114      -81.6977   23.1145  -74.0502 H         1 UNK         0.0793 
    115 H115      -80.6883   22.2920  -72.8711 H         1 UNK         0.0793 
    116 H116      -80.3536   23.9646  -73.2860 H         1 UNK         0.0793 
    117 H117      -80.2241   24.3504  -75.7838 H         1 UNK         0.3047 
    118 H118      -78.2319   24.4196  -78.5675 H         1 UNK         0.0822 
    119 H119      -80.1049   24.7519  -80.1597 H         1 UNK         0.0807 
    120 H120      -81.2213   23.9432  -79.0578 H         1 UNK         0.0807 
    121 H121      -79.9122   23.0440  -79.8112 H         1 UNK         0.0807 
    122 H122      -80.4262   26.0968  -78.0902 H         1 UNK         0.2946 
    123 H123      -78.8271   28.4681  -77.0253 H         1 UNK         0.1144 
    124 H124      -81.0008   27.9485  -78.0524 H         1 UNK         0.0793 
    125 H125      -81.2576   29.0524  -76.7216 H         1 UNK         0.0793 
    126 H126      -81.6367   27.3485  -76.5179 H         1 UNK         0.0793 
    127 H127      -78.9519   29.1102  -74.9097 H         1 UNK         0.2896 
@<TRIPOS>BOND
     1    1    2 1    
     2    1   67 1    
     3    1   68 1    
     4    1   69 1    
     5    2    3 2    
     6    2    4 am   BACKBONE|DICT|INTERRES
     7    4    5 1    
     8    4   70 1    
     9    5    6 1    
    10    5   65 1    
    11    5   71 1    
    12    6    7 1    
    13    6   72 1    
    14    6   73 1    
    15    7    8 1    
    16    8    9 1    
    17    8   74 1    
    18    8   75 1    
    19    9   10 ar   
    20    9   14 ar   
    21   10   11 ar   
    22   10   76 1    
    23   11   12 ar   
    24   11   48 1    
    25   12   13 ar   
    26   12   77 1    
    27   13   14 ar   
    28   13   15 1    
    29   14   78 1    
    30   15   16 1    
    31   15   79 1    
    32   15   80 1    
    33   16   17 1    
    34   17   18 1    
    35   17   81 1    
    36   17   82 1    
    37   18   19 1    
    38   18   22 1    
    39   18   83 1    
    40   19   20 am   BACKBONE|DICT|INTERRES
    41   19   21 2    
    42   20   84 1    
    43   20   85 1    
    44   22   23 am   BACKBONE|DICT|INTERRES
    45   22   86 1    
    46   23   24 2    
    47   23   25 1    
    48   25   26 1    
    49   25   27 1    
    50   25   87 1    
    51   26   88 1    
    52   26   89 1    
    53   26   90 1    
    54   27   28 am   BACKBONE|DICT|INTERRES
    55   27   91 1    
    56   28   29 2    
    57   28   30 1    
    58   30   31 1    
    59   30   32 1    
    60   30   92 1    
    61   31   93 1    
    62   31   94 1    
    63   31   95 1    
    64   32   33 am   BACKBONE|DICT|INTERRES
    65   32   96 1    
    66   33   34 2    
    67   33   35 1    
    68   35   36 1    
    69   35   37 1    
    70   35   97 1    
    71   36   98 1    
    72   36   99 1    
    73   36  100 1    
    74   37   38 am   BACKBONE|DICT|INTERRES
    75   37  101 1    
    76   38   39 2    
    77   38   40 1    
    78   40   41 1    
    79   40   42 1    
    80   40  102 1    
    81   41  103 1    
    82   41  104 1    
    83   41  105 1    
    84   42   43 am   BACKBONE|DICT|INTERRES
    85   42  106 1    
    86   43   44 2    
    87   43   45 1    
    88   45   46 1    
    89   45   49 1    
    90   45  107 1    
    91   46   47 1    
    92   46  108 1    
    93   46  109 1    
    94   47   48 1    
    95   48  110 1    
    96   48  111 1    
    97   49   50 am   BACKBONE|DICT|INTERRES
    98   49  112 1    
    99   50   51 2    
   100   50   52 1    
   101   52   53 1    
   102   52   54 1    
   103   52  113 1    
   104   53  114 1    
   105   53  115 1    
   106   53  116 1    
   107   54   55 am   BACKBONE|DICT|INTERRES
   108   54  117 1    
   109   55   56 2    
   110   55   57 1    
   111   57   58 1    
   112   57   59 1    
   113   57  118 1    
   114   58  119 1    
   115   58  120 1    
   116   58  121 1    
   117   59   60 am   BACKBONE|DICT|INTERRES
   118   59  122 1    
   119   60   61 2    
   120   60   62 1    
   121   62   63 1    
   122   62   64 1    
   123   62  123 1    
   124   63  124 1    
   125   63  125 1    
   126   63  126 1    
   127   64   65 am   BACKBONE|DICT|INTERRES
   128   64  127 1    
   129   65   66 2    
@<TRIPOS>SUBSTRUCTURE
     1 UNK         1 GROUP             0       ****    0 ROOT    
