@<TRIPOS>MOLECULE
3R135
127   129    1
SMALL
USER_CHARGES


@<TRIPOS>ATOM
      1 CA        -83.4568   27.8891  -70.7612 C.3       0 UNK        -0.1998 
      2 C         -83.5904   27.7468  -72.2699 C.2       0 UNK         0.4909 
      3 O         -84.5538   27.1474  -72.7475 O.2       0 UNK        -0.5240 
      4 N         -82.6274   28.2940  -73.0233 N.am      1 UNK        -0.4739 
      5 CA        -82.5642   28.2378  -74.4904 C.3       1 UNK         0.0864 
      6 C6        -81.6276   29.3338  -75.0674 C.3       11 UNK        -0.0881 
      7 S7        -79.8837   29.1993  -74.5384 S.3       11 UNK        -0.2682 
      8 C8        -79.8411   30.2745  -73.0639 C.3       11 UNK         0.0289 
      9 C9        -78.8616   29.7235  -72.0387 C.ar      11 UNK        -0.0687 
     10 C10       -79.0984   28.4731  -71.4616 C.ar      11 UNK        -0.0823 
     11 C11       -78.1499   27.8894  -70.6202 C.ar      11 UNK        -0.0830 
     12 C12       -76.9969   28.6005  -70.2789 C.ar      11 UNK        -0.1021 
     13 C13       -76.7505   29.8544  -70.8462 C.ar      11 UNK        -0.0753 
     14 C14       -77.6880   30.4149  -71.7216 C.ar      11 UNK        -0.0933 
     15 C15       -75.4296   30.5582  -70.5829 C.3       11 UNK         0.0166 
     16 S16       -74.0819   29.7291  -71.4864 S.3       11 UNK        -0.2615 
     17 C17       -72.9519   31.1288  -71.7931 C.3       11 UNK        -0.0865 
     18 CA        -71.7609   30.7835  -72.7296 C.3       10 UNK         0.0862 
     19 C         -70.6269   29.9859  -72.0170 C.2       10 UNK         0.5551 
     20 N         -70.0445   28.9579  -72.6238 N.am      10 UNK        -0.7319 
     21 O         -70.2486   30.3200  -70.8967 O.2       10 UNK        -0.5018 
     22 N         -72.2243   30.1800  -73.9892 N.am      10 UNK        -0.4509 
     23 C         -71.6890   30.3935  -75.1950 C.2       10 UNK         0.4899 
     24 O         -70.7811   31.1980  -75.4125 O.2       10 UNK        -0.4839 
     25 CA        -72.2636   29.5364  -76.3387 C.3       9 UNK         0.0222 
     26 CB        -71.5406   29.7639  -77.6827 C.3       9 UNK        -0.1966 
     27 N         -72.2988   28.1037  -76.0186 N.am      9 UNK        -0.4218 
     28 C         -71.2708   27.3174  -75.6622 C.2       9 UNK         0.5020 
     29 O         -70.1307   27.7275  -75.4412 O.2       9 UNK        -0.5274 
     30 CA        -71.5565   25.8103  -75.5284 C.3       8 UNK         0.0270 
     31 CB        -71.9410   25.4616  -74.0814 C.3       8 UNK        -0.1976 
     32 N         -72.5913   25.3313  -76.4527 N.am      8 UNK        -0.4313 
     33 C         -72.4581   25.2919  -77.7878 C.2       8 UNK         0.5041 
     34 O         -71.4170   25.5792  -78.3803 O.2       8 UNK        -0.5577 
     35 CA        -73.6935   24.8798  -78.6079 C.3       7 UNK         0.0284 
     36 CB        -73.8096   23.3493  -78.6895 C.3       7 UNK        -0.1958 
     37 N         -74.9387   25.4468  -78.0839 N.am      7 UNK        -0.4454 
     38 C         -75.2474   26.7522  -78.0988 C.2       7 UNK         0.5089 
     39 O         -74.5523   27.6157  -78.6336 O.2       7 UNK        -0.5125 
     40 CA        -76.5246   27.1760  -77.3503 C.3       6 UNK         0.0408 
     41 CB        -77.7674   27.0022  -78.2357 C.3       6 UNK        -0.1791 
     42 N         -76.7090   26.4526  -76.0899 N.am      6 UNK        -0.4762 
     43 C         -75.8629   26.5094  -75.0511 C.2       6 UNK         0.5007 
     44 O         -74.8619   27.2259  -75.0290 O.2       6 UNK        -0.5032 
     45 CA        -76.1475   25.5739  -73.8600 C.3       5 UNK         0.0783 
     46 C46       -77.1646   26.2089  -72.8917 C.3       11 UNK        -0.0857 
     47 S47       -77.2369   25.3436  -71.2771 S.3       11 UNK        -0.2512 
     48 C48       -78.2911   26.4255  -70.2362 C.3       11 UNK         0.0225 
     49 N         -76.5620   24.2457  -74.3120 N.am      5 UNK        -0.4615 
     50 C         -75.7514   23.3723  -74.9211 C.2       4 UNK         0.5053 
     51 O         -74.5578   23.5821  -75.1346 O.2       4 UNK        -0.5105 
     52 CA        -76.3935   22.0645  -75.4114 C.3       4 UNK         0.0263 
     53 CB        -76.5057   21.0513  -74.2613 C.3       4 UNK        -0.1981 
     54 N         -77.7134   22.2793  -76.0112 N.am      4 UNK        -0.4224 
     55 C         -77.9233   22.9674  -77.1429 C.2       3 UNK         0.4895 
     56 O         -77.0225   23.4530  -77.8257 O.2       3 UNK        -0.5091 
     57 CA        -79.3858   23.1867  -77.5644 C.3       3 UNK         0.0250 
     58 CB        -79.8983   21.9876  -78.3779 C.3       3 UNK        -0.1996 
     59 N         -80.2950   23.4474  -76.4423 N.am      3 UNK        -0.4254 
     60 C         -80.1919   24.4856  -75.6005 C.2       2 UNK         0.5004 
     61 O         -79.2725   25.3054  -75.6301 O.2       2 UNK        -0.5226 
     62 CA        -81.2632   24.5884  -74.5041 C.3       2 UNK         0.0269 
     63 CB        -80.7697   23.9085  -73.2159 C.3       2 UNK        -0.1926 
     64 N         -81.6181   25.9757  -74.1989 N.am      2 UNK        -0.4687 
     65 C         -82.2386   26.8248  -75.0331 C.2       1 UNK         0.5165 
     66 O         -82.5902   26.5229  -76.1751 O.2       1 UNK        -0.5079 
     67 H67       -84.3253   28.4071  -70.3554 H         1 UNK         0.0900 
     68 H68       -83.3988   26.9055  -70.2957 H         1 UNK         0.0900 
     69 H69       -82.5659   28.4505  -70.4799 H         1 UNK         0.0900 
     70 H70       -81.8700   28.7898  -72.5794 H         1 UNK         0.2959 
     71 H71       -83.5692   28.4618  -74.8562 H         1 UNK         0.1079 
     72 H72       -81.6498   29.3049  -76.1585 H         1 UNK         0.0837 
     73 H73       -82.0052   30.3221  -74.8001 H         1 UNK         0.0837 
     74 H74       -80.8275   30.3523  -72.6071 H         1 UNK         0.0685 
     75 H75       -79.5640   31.2843  -73.3703 H         1 UNK         0.0685 
     76 H76       -79.9737   27.9091  -71.7485 H         1 UNK         0.1434 
     77 H77       -76.2459   28.1388  -69.6522 H         1 UNK         0.1329 
     78 H78       -77.4845   31.3693  -72.1876 H         1 UNK         0.1335 
     79 H79       -75.4952   31.6053  -70.8826 H         1 UNK         0.0680 
     80 H80       -75.2080   30.5536  -69.5147 H         1 UNK         0.0680 
     81 H81       -72.6030   31.5265  -70.8381 H         1 UNK         0.1032 
     82 H82       -73.5302   31.9335  -72.2496 H         1 UNK         0.1032 
     83 H83       -71.2942   31.7394  -72.9740 H         1 UNK         0.0461 
     84 H84       -69.3075   28.4638  -72.1467 H         1 UNK         0.3453 
     85 H85       -70.2852   28.7039  -73.5735 H         1 UNK         0.3453 
     86 H86       -72.9533   29.4863  -73.8935 H         1 UNK         0.2984 
     87 H87       -73.3021   29.8456  -76.4663 H         1 UNK         0.0554 
     88 H88       -71.5918   30.8110  -77.9835 H         1 UNK         0.0847 
     89 H89       -71.9963   29.1751  -78.4793 H         1 UNK         0.0847 
     90 H90       -70.4863   29.4909  -77.6262 H         1 UNK         0.0847 
     91 H91       -73.2197   27.6746  -76.0449 H         1 UNK         0.3141 
     92 H92       -70.6322   25.2804  -75.7679 H         1 UNK         0.0743 
     93 H93       -71.1489   25.7502  -73.3890 H         1 UNK         0.0784 
     94 H94       -72.8478   25.9774  -73.7669 H         1 UNK         0.0784 
     95 H95       -72.1034   24.3905  -73.9596 H         1 UNK         0.0784 
     96 H96       -73.4532   24.9878  -76.0390 H         1 UNK         0.3213 
     97 H97       -73.5569   25.2618  -79.6220 H         1 UNK         0.0855 
     98 H98       -73.9743   22.9019  -77.7092 H         1 UNK         0.0814 
     99 H99       -72.8993   22.9105  -79.1002 H         1 UNK         0.0814 
    100 H100      -74.6345   23.0489  -79.3358 H         1 UNK         0.0814 
    101 H101      -75.6149   24.7924  -77.6990 H         1 UNK         0.3105 
    102 H102      -76.4306   28.2363  -77.1062 H         1 UNK         0.0547 
    103 H103      -78.6704   27.3317  -77.7207 H         1 UNK         0.0837 
    104 H104      -77.9106   25.9631  -78.5307 H         1 UNK         0.0837 
    105 H105      -77.6796   27.5912  -79.1494 H         1 UNK         0.0837 
    106 H106      -77.5548   25.8916  -75.9991 H         1 UNK         0.3020 
    107 H107      -75.2032   25.4607  -73.3225 H         1 UNK         0.1245 
    108 H108      -78.1631   26.2481  -73.3309 H         1 UNK         0.0781 
    109 H109      -76.8625   27.2423  -72.7194 H         1 UNK         0.0781 
    110 H110      -78.0236   26.2882  -69.1876 H         1 UNK         0.0836 
    111 H111      -79.3293   26.1034  -70.3313 H         1 UNK         0.0836 
    112 H112      -77.5404   24.0228  -74.2109 H         1 UNK         0.3022 
    113 H113      -75.7401   21.6415  -76.1775 H         1 UNK         0.0747 
    114 H114      -76.8869   20.0924  -74.6131 H         1 UNK         0.0793 
    115 H115      -75.5295   20.8644  -73.8114 H         1 UNK         0.0793 
    116 H116      -77.1665   21.4062  -73.4692 H         1 UNK         0.0793 
    117 H117      -78.5118   21.9088  -75.5173 H         1 UNK         0.3047 
    118 H118      -79.4085   24.0667  -78.2101 H         1 UNK         0.0822 
    119 H119      -80.8964   22.1743  -78.7747 H         1 UNK         0.0807 
    120 H120      -79.9391   21.0773  -77.7784 H         1 UNK         0.0807 
    121 H121      -79.2464   21.7877  -79.2298 H         1 UNK         0.0807 
    122 H122      -81.0714   22.8098  -76.3370 H         1 UNK         0.2946 
    123 H123      -82.1680   24.0821  -74.8480 H         1 UNK         0.1144 
    124 H124      -79.8780   24.3943  -72.8179 H         1 UNK         0.0793 
    125 H125      -80.5187   22.8620  -73.3941 H         1 UNK         0.0793 
    126 H126      -81.5349   23.9269  -72.4395 H         1 UNK         0.0793 
    127 H127      -81.3537   26.3225  -73.2904 H         1 UNK         0.2896 
@<TRIPOS>BOND
     1    1    2 1    
     2    1   67 1    
     3    1   68 1    
     4    1   69 1    
     5    2    3 2    
     6    2    4 am   BACKBONE|DICT|INTERRES
     7    4    5 1    
     8    4   70 1    
     9    5    6 1    
    10    5   65 1    
    11    5   71 1    
    12    6    7 1    
    13    6   72 1    
    14    6   73 1    
    15    7    8 1    
    16    8    9 1    
    17    8   74 1    
    18    8   75 1    
    19    9   10 ar   
    20    9   14 ar   
    21   10   11 ar   
    22   10   76 1    
    23   11   12 ar   
    24   11   48 1    
    25   12   13 ar   
    26   12   77 1    
    27   13   14 ar   
    28   13   15 1    
    29   14   78 1    
    30   15   16 1    
    31   15   79 1    
    32   15   80 1    
    33   16   17 1    
    34   17   18 1    
    35   17   81 1    
    36   17   82 1    
    37   18   19 1    
    38   18   22 1    
    39   18   83 1    
    40   19   20 am   BACKBONE|DICT|INTERRES
    41   19   21 2    
    42   20   84 1    
    43   20   85 1    
    44   22   23 am   BACKBONE|DICT|INTERRES
    45   22   86 1    
    46   23   24 2    
    47   23   25 1    
    48   25   26 1    
    49   25   27 1    
    50   25   87 1    
    51   26   88 1    
    52   26   89 1    
    53   26   90 1    
    54   27   28 am   BACKBONE|DICT|INTERRES
    55   27   91 1    
    56   28   29 2    
    57   28   30 1    
    58   30   31 1    
    59   30   32 1    
    60   30   92 1    
    61   31   93 1    
    62   31   94 1    
    63   31   95 1    
    64   32   33 am   BACKBONE|DICT|INTERRES
    65   32   96 1    
    66   33   34 2    
    67   33   35 1    
    68   35   36 1    
    69   35   37 1    
    70   35   97 1    
    71   36   98 1    
    72   36   99 1    
    73   36  100 1    
    74   37   38 am   BACKBONE|DICT|INTERRES
    75   37  101 1    
    76   38   39 2    
    77   38   40 1    
    78   40   41 1    
    79   40   42 1    
    80   40  102 1    
    81   41  103 1    
    82   41  104 1    
    83   41  105 1    
    84   42   43 am   BACKBONE|DICT|INTERRES
    85   42  106 1    
    86   43   44 2    
    87   43   45 1    
    88   45   46 1    
    89   45   49 1    
    90   45  107 1    
    91   46   47 1    
    92   46  108 1    
    93   46  109 1    
    94   47   48 1    
    95   48  110 1    
    96   48  111 1    
    97   49   50 am   BACKBONE|DICT|INTERRES
    98   49  112 1    
    99   50   51 2    
   100   50   52 1    
   101   52   53 1    
   102   52   54 1    
   103   52  113 1    
   104   53  114 1    
   105   53  115 1    
   106   53  116 1    
   107   54   55 am   BACKBONE|DICT|INTERRES
   108   54  117 1    
   109   55   56 2    
   110   55   57 1    
   111   57   58 1    
   112   57   59 1    
   113   57  118 1    
   114   58  119 1    
   115   58  120 1    
   116   58  121 1    
   117   59   60 am   BACKBONE|DICT|INTERRES
   118   59  122 1    
   119   60   61 2    
   120   60   62 1    
   121   62   63 1    
   122   62   64 1    
   123   62  123 1    
   124   63  124 1    
   125   63  125 1    
   126   63  126 1    
   127   64   65 am   BACKBONE|DICT|INTERRES
   128   64  127 1    
   129   65   66 2    
@<TRIPOS>SUBSTRUCTURE
     1 UNK         1 GROUP             0       ****    0 ROOT    
