@<TRIPOS>MOLECULE
3R135
127   129    1
SMALL
USER_CHARGES


@<TRIPOS>ATOM
      1 CA        -77.8403   29.4255  -77.9721 C.3       0 UNK        -0.1998 
      2 C         -78.3234   30.0155  -76.6471 C.2       0 UNK         0.4909 
      3 O         -78.6891   31.1876  -76.6211 O.2       0 UNK        -0.5240 
      4 N         -78.3645   29.2724  -75.5291 N.am      1 UNK        -0.4739 
      5 CA        -78.0441   27.8477  -75.3468 C.3       1 UNK         0.0864 
      6 C6        -77.8741   27.4916  -73.8478 C.3       11 UNK        -0.0881 
      7 S7        -79.3249   27.8982  -72.8087 S.3       11 UNK        -0.2682 
      8 C8        -79.1848   26.6883  -71.4453 C.3       11 UNK         0.0289 
      9 C9        -77.7883   26.6305  -70.8359 C.ar      11 UNK        -0.0687 
     10 C10       -77.1227   25.4051  -70.7346 C.ar      11 UNK        -0.0823 
     11 C11       -75.8024   25.3449  -70.2755 C.ar      11 UNK        -0.0830 
     12 C12       -75.1659   26.5221  -69.8741 C.ar      11 UNK        -0.1021 
     13 C13       -75.8324   27.7485  -69.9331 C.ar      11 UNK        -0.0753 
     14 C14       -77.1475   27.7960  -70.4030 C.ar      11 UNK        -0.0933 
     15 C15       -75.1131   29.0183  -69.5101 C.3       11 UNK         0.0166 
     16 S16       -74.1961   29.7449  -70.9028 S.3       11 UNK        -0.2615 
     17 C17       -75.4721   30.8342  -71.6273 C.3       11 UNK        -0.0865 
     18 CA        -75.0476   31.4972  -72.9621 C.3       10 UNK         0.0862 
     19 C         -73.8629   32.4952  -72.7811 C.2       10 UNK         0.5551 
     20 N         -72.6923   32.2580  -73.3641 N.am      10 UNK        -0.7319 
     21 O         -74.0179   33.5107  -72.1070 O.2       10 UNK        -0.5018 
     22 N         -74.8580   30.4952  -74.0195 N.am      10 UNK        -0.4509 
     23 C         -74.8487   30.7709  -75.3296 C.2       10 UNK         0.4899 
     24 O         -75.1274   31.8775  -75.7929 O.2       10 UNK        -0.4839 
     25 CA        -74.4656   29.6233  -76.2852 C.3       9 UNK         0.0222 
     26 CB        -73.7937   30.1412  -77.5742 C.3       9 UNK        -0.1966 
     27 N         -73.6534   28.5642  -75.6743 N.am      9 UNK        -0.4218 
     28 C         -72.4417   28.6893  -75.1096 C.2       9 UNK         0.5020 
     29 O         -71.8712   29.7646  -74.9196 O.2       9 UNK        -0.5274 
     30 CA        -71.7543   27.3812  -74.6926 C.3       8 UNK         0.0270 
     31 CB        -72.2436   26.9333  -73.3042 C.3       8 UNK        -0.1976 
     32 N         -71.9946   26.3229  -75.6800 N.am      8 UNK        -0.4313 
     33 C         -71.3125   26.1950  -76.8289 C.2       8 UNK         0.5041 
     34 O         -70.3429   26.8932  -77.1281 O.2       8 UNK        -0.5577 
     35 CA        -71.7795   25.1081  -77.8167 C.3       7 UNK         0.0284 
     36 CB        -71.0362   23.7885  -77.5526 C.3       7 UNK        -0.1958 
     37 N         -73.2237   24.8677  -77.7709 N.am      7 UNK        -0.4454 
     38 C         -74.1564   25.7063  -78.2459 C.2       7 UNK         0.5089 
     39 O         -73.8988   26.7346  -78.8693 O.2       7 UNK        -0.5125 
     40 CA        -75.6286   25.3597  -77.9435 C.3       6 UNK         0.0408 
     41 CB        -76.2845   24.6652  -79.1457 C.3       6 UNK        -0.1791 
     42 N         -75.8142   24.5329  -76.7450 N.am      6 UNK        -0.4762 
     43 C         -75.4558   24.8849  -75.5045 C.2       6 UNK         0.5007 
     44 O         -74.9464   25.9774  -75.2396 O.2       6 UNK        -0.5032 
     45 CA        -75.6760   23.8358  -74.3964 C.3       5 UNK         0.0783 
     46 C46       -74.9048   24.1906  -73.0972 C.3       11 UNK        -0.0857 
     47 S47       -75.2260   23.0025  -71.7433 S.3       11 UNK        -0.2512 
     48 C48       -75.0347   24.0255  -70.2398 C.3       11 UNK         0.0225 
     49 N         -77.1014   23.5954  -74.1495 N.am      5 UNK        -0.4615 
     50 C         -77.8908   22.8024  -74.8843 C.2       4 UNK         0.5053 
     51 O         -77.5643   22.3272  -75.9729 O.2       4 UNK        -0.5105 
     52 CA        -79.2448   22.4326  -74.2667 C.3       4 UNK         0.0263 
     53 CB        -79.0964   22.0061  -72.7861 C.3       4 UNK        -0.1981 
     54 N         -80.2076   23.5253  -74.4183 N.am      4 UNK        -0.4224 
     55 C         -81.5223   23.4109  -74.1650 C.2       3 UNK         0.4895 
     56 O         -82.0558   22.3621  -73.8003 O.2       3 UNK        -0.5091 
     57 CA        -82.4148   24.6558  -74.3269 C.3       3 UNK         0.0250 
     58 CB        -82.6838   25.3115  -72.9626 C.3       3 UNK        -0.1996 
     59 N         -81.8689   25.6568  -75.2398 N.am      3 UNK        -0.4254 
     60 C         -81.8454   25.5365  -76.5739 C.2       2 UNK         0.5004 
     61 O         -82.3416   24.5908  -77.1868 O.2       2 UNK        -0.5226 
     62 CA        -81.1366   26.6545  -77.3591 C.3       2 UNK         0.0269 
     63 CB        -82.1624   27.6376  -77.9458 C.3       2 UNK        -0.1926 
     64 N         -80.1456   27.4059  -76.5788 N.am      2 UNK        -0.4687 
     65 C         -79.0291   26.8861  -76.0471 C.2       1 UNK         0.5165 
     66 O         -78.7670   25.6858  -76.0850 O.2       1 UNK        -0.5079 
     67 H67       -78.6874   29.2786  -78.6415 H         1 UNK         0.0900 
     68 H68       -77.1530   30.1203  -78.4541 H         1 UNK         0.0900 
     69 H69       -77.3226   28.4751  -77.8749 H         1 UNK         0.0900 
     70 H70       -78.7048   29.7180  -74.6879 H         1 UNK         0.2959 
     71 H71       -77.0750   27.6622  -75.8100 H         1 UNK         0.1079 
     72 H72       -77.0152   28.0310  -73.4447 H         1 UNK         0.0837 
     73 H73       -77.6274   26.4351  -73.7306 H         1 UNK         0.0837 
     74 H74       -79.4752   25.7081  -71.8259 H         1 UNK         0.0685 
     75 H75       -79.9043   26.9450  -70.6669 H         1 UNK         0.0685 
     76 H76       -77.6173   24.4969  -71.0454 H         1 UNK         0.1434 
     77 H77       -74.1421   26.4904  -69.5264 H         1 UNK         0.1329 
     78 H78       -77.6638   28.7438  -70.4655 H         1 UNK         0.1335 
     79 H79       -74.4093   28.7926  -68.7074 H         1 UNK         0.0680 
     80 H80       -75.8175   29.7438  -69.1003 H         1 UNK         0.0680 
     81 H81       -75.7363   31.5989  -70.8942 H         1 UNK         0.1032 
     82 H82       -76.3809   30.2539  -71.7895 H         1 UNK         0.1032 
     83 H83       -75.8924   32.1145  -73.2744 H         1 UNK         0.0461 
     84 H84       -72.5438   31.4163  -73.9102 H         1 UNK         0.3453 
     85 H85       -71.9386   32.9147  -73.2412 H         1 UNK         0.3453 
     86 H86       -74.5841   29.5744  -73.7112 H         1 UNK         0.2984 
     87 H87       -75.3976   29.1434  -76.5738 H         1 UNK         0.0554 
     88 H88       -74.4561   30.8117  -78.1228 H         1 UNK         0.0847 
     89 H89       -73.5376   29.3230  -78.2467 H         1 UNK         0.0847 
     90 H90       -72.8787   30.6933  -77.3571 H         1 UNK         0.0847 
     91 H91       -74.0619   27.6334  -75.6921 H         1 UNK         0.3141 
     92 H92       -70.6802   27.5688  -74.6278 H         1 UNK         0.0743 
     93 H93       -71.7732   25.9991  -72.9976 H         1 UNK         0.0784 
     94 H94       -71.9988   27.6817  -72.5490 H         1 UNK         0.0784 
     95 H95       -73.3241   26.7929  -73.2740 H         1 UNK         0.0784 
     96 H96       -72.8126   25.7472  -75.5344 H         1 UNK         0.3213 
     97 H97       -71.5233   25.4475  -78.8230 H         1 UNK         0.0855 
     98 H98       -71.2598   23.3866  -76.5635 H         1 UNK         0.0814 
     99 H99       -69.9561   23.9328  -77.6081 H         1 UNK         0.0814 
    100 H100      -71.2972   23.0306  -78.2915 H         1 UNK         0.0814 
    101 H101      -73.5363   24.0273  -77.3075 H         1 UNK         0.3105 
    102 H102      -76.1514   26.3020  -77.7725 H         1 UNK         0.0547 
    103 H103      -75.8269   23.6970  -79.3522 H         1 UNK         0.0837 
    104 H104      -76.1889   25.2712  -80.0478 H         1 UNK         0.0837 
    105 H105      -77.3495   24.5049  -78.9758 H         1 UNK         0.0837 
    106 H106      -76.3106   23.6536  -76.8570 H         1 UNK         0.3020 
    107 H107      -75.2445   22.9026  -74.7668 H         1 UNK         0.1245 
    108 H108      -75.1648   25.1987  -72.7751 H         1 UNK         0.0781 
    109 H109      -73.8297   24.2034  -73.2843 H         1 UNK         0.0781 
    110 H110      -73.9692   24.2093  -70.0930 H         1 UNK         0.0836 
    111 H111      -75.3680   23.4481  -69.3767 H         1 UNK         0.0836 
    112 H112      -77.4531   23.9394  -73.2707 H         1 UNK         0.3022 
    113 H113      -79.6185   21.5740  -74.8290 H         1 UNK         0.0747 
    114 H114      -79.9756   21.4652  -72.4371 H         1 UNK         0.0793 
    115 H115      -78.2445   21.3380  -72.6489 H         1 UNK         0.0793 
    116 H116      -78.9557   22.8603  -72.1248 H         1 UNK         0.0793 
    117 H117      -79.8432   24.3864  -74.8143 H         1 UNK         0.3047 
    118 H118      -83.3716   24.3149  -74.7291 H         1 UNK         0.0822 
    119 H119      -83.3997   26.1290  -73.0504 H         1 UNK         0.0807 
    120 H120      -81.7733   25.7111  -72.5178 H         1 UNK         0.0807 
    121 H121      -83.1024   24.5915  -72.2579 H         1 UNK         0.0807 
    122 H122      -81.4444   26.4746  -74.8265 H         1 UNK         0.2946 
    123 H123      -80.6092   26.1728  -78.1858 H         1 UNK         0.1144 
    124 H124      -81.6824   28.3782  -78.5859 H         1 UNK         0.0793 
    125 H125      -82.7053   28.1692  -77.1633 H         1 UNK         0.0793 
    126 H126      -82.8999   27.1147  -78.5566 H         1 UNK         0.0793 
    127 H127      -80.3101   28.3959  -76.4638 H         1 UNK         0.2896 
@<TRIPOS>BOND
     1    1    2 1    
     2    1   67 1    
     3    1   68 1    
     4    1   69 1    
     5    2    3 2    
     6    2    4 am   BACKBONE|DICT|INTERRES
     7    4    5 1    
     8    4   70 1    
     9    5    6 1    
    10    5   65 1    
    11    5   71 1    
    12    6    7 1    
    13    6   72 1    
    14    6   73 1    
    15    7    8 1    
    16    8    9 1    
    17    8   74 1    
    18    8   75 1    
    19    9   10 ar   
    20    9   14 ar   
    21   10   11 ar   
    22   10   76 1    
    23   11   12 ar   
    24   11   48 1    
    25   12   13 ar   
    26   12   77 1    
    27   13   14 ar   
    28   13   15 1    
    29   14   78 1    
    30   15   16 1    
    31   15   79 1    
    32   15   80 1    
    33   16   17 1    
    34   17   18 1    
    35   17   81 1    
    36   17   82 1    
    37   18   19 1    
    38   18   22 1    
    39   18   83 1    
    40   19   20 am   BACKBONE|DICT|INTERRES
    41   19   21 2    
    42   20   84 1    
    43   20   85 1    
    44   22   23 am   BACKBONE|DICT|INTERRES
    45   22   86 1    
    46   23   24 2    
    47   23   25 1    
    48   25   26 1    
    49   25   27 1    
    50   25   87 1    
    51   26   88 1    
    52   26   89 1    
    53   26   90 1    
    54   27   28 am   BACKBONE|DICT|INTERRES
    55   27   91 1    
    56   28   29 2    
    57   28   30 1    
    58   30   31 1    
    59   30   32 1    
    60   30   92 1    
    61   31   93 1    
    62   31   94 1    
    63   31   95 1    
    64   32   33 am   BACKBONE|DICT|INTERRES
    65   32   96 1    
    66   33   34 2    
    67   33   35 1    
    68   35   36 1    
    69   35   37 1    
    70   35   97 1    
    71   36   98 1    
    72   36   99 1    
    73   36  100 1    
    74   37   38 am   BACKBONE|DICT|INTERRES
    75   37  101 1    
    76   38   39 2    
    77   38   40 1    
    78   40   41 1    
    79   40   42 1    
    80   40  102 1    
    81   41  103 1    
    82   41  104 1    
    83   41  105 1    
    84   42   43 am   BACKBONE|DICT|INTERRES
    85   42  106 1    
    86   43   44 2    
    87   43   45 1    
    88   45   46 1    
    89   45   49 1    
    90   45  107 1    
    91   46   47 1    
    92   46  108 1    
    93   46  109 1    
    94   47   48 1    
    95   48  110 1    
    96   48  111 1    
    97   49   50 am   BACKBONE|DICT|INTERRES
    98   49  112 1    
    99   50   51 2    
   100   50   52 1    
   101   52   53 1    
   102   52   54 1    
   103   52  113 1    
   104   53  114 1    
   105   53  115 1    
   106   53  116 1    
   107   54   55 am   BACKBONE|DICT|INTERRES
   108   54  117 1    
   109   55   56 2    
   110   55   57 1    
   111   57   58 1    
   112   57   59 1    
   113   57  118 1    
   114   58  119 1    
   115   58  120 1    
   116   58  121 1    
   117   59   60 am   BACKBONE|DICT|INTERRES
   118   59  122 1    
   119   60   61 2    
   120   60   62 1    
   121   62   63 1    
   122   62   64 1    
   123   62  123 1    
   124   63  124 1    
   125   63  125 1    
   126   63  126 1    
   127   64   65 am   BACKBONE|DICT|INTERRES
   128   64  127 1    
   129   65   66 2    
@<TRIPOS>SUBSTRUCTURE
     1 UNK         1 GROUP             0       ****    0 ROOT    
