@<TRIPOS>MOLECULE
3R135
127   129    1
SMALL
USER_CHARGES


@<TRIPOS>ATOM
      1 CA        -83.9598   32.0930  -77.0145 C.3       0 UNK        -0.1998 
      2 C         -83.2734   31.0152  -76.1882 C.2       0 UNK         0.4909 
      3 O         -83.7322   30.7087  -75.0870 O.2       0 UNK        -0.5240 
      4 N         -82.1766   30.4489  -76.7119 N.am      1 UNK        -0.4739 
      5 CA        -81.3910   29.3578  -76.1171 C.3       1 UNK         0.0864 
      6 C6        -80.7749   29.7496  -74.7419 C.3       11 UNK        -0.0881 
      7 S7        -79.1465   28.9825  -74.4600 S.3       11 UNK        -0.2682 
      8 C8        -79.3087   28.4427  -72.7298 C.3       11 UNK         0.0289 
      9 C9        -78.0563   27.7420  -72.2178 C.ar      11 UNK        -0.0687 
     10 C10       -78.1526   26.4790  -71.6255 C.ar      11 UNK        -0.0823 
     11 C11       -77.0189   25.8506  -71.1012 C.ar      11 UNK        -0.0830 
     12 C12       -75.7779   26.4873  -71.1842 C.ar      11 UNK        -0.1021 
     13 C13       -75.6630   27.7401  -71.7920 C.ar      11 UNK        -0.0753 
     14 C14       -76.8064   28.3658  -72.2984 C.ar      11 UNK        -0.0933 
     15 C15       -74.3012   28.4038  -71.9217 C.3       11 UNK         0.0166 
     16 S16       -74.2221   29.9697  -70.9971 S.3       11 UNK        -0.2615 
     17 C17       -72.4532   30.3943  -71.1411 C.3       11 UNK        -0.0865 
     18 CA        -72.1590   31.3655  -72.3135 C.3       10 UNK         0.0862 
     19 C         -70.7118   31.9198  -72.2061 C.2       10 UNK         0.5551 
     20 N         -70.5504   33.1580  -71.7605 N.am      10 UNK        -0.7319 
     21 O         -69.7384   31.2185  -72.4724 O.2       10 UNK        -0.5018 
     22 N         -72.4156   30.7196  -73.6081 N.am      10 UNK        -0.4509 
     23 C         -72.3871   31.3170  -74.8054 C.2       10 UNK         0.4899 
     24 O         -72.2086   32.5263  -74.9592 O.2       10 UNK        -0.4839 
     25 CA        -72.6365   30.4203  -76.0384 C.3       9 UNK         0.0222 
     26 CB        -71.9130   30.9372  -77.3000 C.3       9 UNK        -0.1966 
     27 N         -72.3554   28.9916  -75.8274 N.am      9 UNK        -0.4218 
     28 C         -71.1739   28.4283  -75.5169 C.2       9 UNK         0.5020 
     29 O         -70.1346   29.0637  -75.3409 O.2       9 UNK        -0.5274 
     30 CA        -71.1344   26.8949  -75.3634 C.3       8 UNK         0.0270 
     31 CB        -71.2058   26.5043  -73.8782 C.3       8 UNK        -0.1976 
     32 N         -72.2008   26.2092  -76.0975 N.am      8 UNK        -0.4313 
     33 C         -72.2700   26.1401  -77.4367 C.2       8 UNK         0.5041 
     34 O         -71.3786   26.5470  -78.1831 O.2       8 UNK        -0.5577 
     35 CA        -73.5455   25.5442  -78.0648 C.3       7 UNK         0.0284 
     36 CB        -73.2730   24.1237  -78.5848 C.3       7 UNK        -0.1958 
     37 N         -74.7071   25.5110  -77.1717 N.am      7 UNK        -0.4454 
     38 C         -75.2894   26.5765  -76.5989 C.2       7 UNK         0.5089 
     39 O         -74.9197   27.7376  -76.7775 O.2       7 UNK        -0.5125 
     40 CA        -76.4388   26.2939  -75.6151 C.3       6 UNK         0.0408 
     41 CB        -77.7805   26.3863  -76.3552 C.3       6 UNK        -0.1791 
     42 N         -76.3420   24.9917  -74.9434 N.am      6 UNK        -0.4762 
     43 C         -75.2928   24.5632  -74.2196 C.2       6 UNK         0.5007 
     44 O         -74.2907   25.2490  -74.0097 O.2       6 UNK        -0.5032 
     45 CA        -75.3052   23.1012  -73.7212 C.3       5 UNK         0.0783 
     46 C46       -75.4898   22.9913  -72.1859 C.3       11 UNK        -0.0857 
     47 S47       -77.2246   23.1350  -71.6280 S.3       11 UNK        -0.2512 
     48 C48       -77.1430   24.4950  -70.4238 C.3       11 UNK         0.0225 
     49 N         -76.2391   22.2359  -74.4486 N.am      5 UNK        -0.4615 
     50 C         -76.1600   21.9114  -75.7448 C.2       4 UNK         0.5053 
     51 O         -75.2543   22.2885  -76.4884 O.2       4 UNK        -0.5105 
     52 CA        -77.2999   21.0467  -76.3123 C.3       4 UNK         0.0263 
     53 CB        -76.9032   19.5619  -76.2960 C.3       4 UNK        -0.1981 
     54 N         -78.5808   21.2163  -75.6118 N.am      4 UNK        -0.4224 
     55 C         -79.2955   22.3511  -75.5965 C.2       3 UNK         0.4895 
     56 O         -78.9314   23.3802  -76.1669 O.2       3 UNK        -0.5091 
     57 CA        -80.6376   22.2974  -74.8387 C.3       3 UNK         0.0250 
     58 CB        -80.4414   22.0521  -73.3274 C.3       3 UNK        -0.1996 
     59 N         -81.4980   23.4662  -75.0801 N.am      3 UNK        -0.4254 
     60 C         -81.3102   24.7367  -74.6897 C.2       2 UNK         0.5004 
     61 O         -80.3890   25.1322  -73.9716 O.2       2 UNK        -0.5226 
     62 CA        -82.3709   25.7383  -75.1583 C.3       2 UNK         0.0269 
     63 CB        -83.5525   25.7895  -74.1724 C.3       2 UNK        -0.1926 
     64 N         -81.7680   27.0644  -75.2746 N.am      2 UNK        -0.4687 
     65 C         -82.1762   28.0214  -76.1152 C.2       1 UNK         0.5165 
     66 O         -83.1193   27.8648  -76.8969 O.2       1 UNK        -0.5079 
     67 H67       -84.9837   31.7964  -77.2403 H         1 UNK         0.0900 
     68 H68       -83.9907   33.0295  -76.4583 H         1 UNK         0.0900 
     69 H69       -83.4441   32.2757  -77.9572 H         1 UNK         0.0900 
     70 H70       -81.8771   30.7329  -77.6346 H         1 UNK         0.2959 
     71 H71       -80.5714   29.2014  -76.8206 H         1 UNK         0.1079 
     72 H72       -81.4615   29.5290  -73.9220 H         1 UNK         0.0837 
     73 H73       -80.6115   30.8277  -74.6990 H         1 UNK         0.0837 
     74 H74       -80.1763   27.7861  -72.6449 H         1 UNK         0.0685 
     75 H75       -79.5088   29.3109  -72.1004 H         1 UNK         0.0685 
     76 H76       -79.1125   25.9836  -71.5654 H         1 UNK         0.1434 
     77 H77       -74.8977   26.0020  -70.7857 H         1 UNK         0.1329 
     78 H78       -76.7221   29.3408  -72.7584 H         1 UNK         0.1335 
     79 H79       -73.5163   27.7359  -71.5634 H         1 UNK         0.0680 
     80 H80       -74.1019   28.5852  -72.9780 H         1 UNK         0.0680 
     81 H81       -71.8522   29.4866  -71.2244 H         1 UNK         0.1032 
     82 H82       -72.1642   30.8524  -70.1929 H         1 UNK         0.1032 
     83 H83       -72.8503   32.2075  -72.2364 H         1 UNK         0.0461 
     84 H84       -71.3438   33.7366  -71.5311 H         1 UNK         0.3453 
     85 H85       -69.6173   33.5281  -71.6666 H         1 UNK         0.3453 
     86 H86       -72.5409   29.7209  -73.5864 H         1 UNK         0.2984 
     87 H87       -73.7084   30.4796  -76.2325 H         1 UNK         0.0554 
     88 H88       -72.2403   31.9456  -77.5563 H         1 UNK         0.0847 
     89 H89       -72.1189   30.3035  -78.1628 H         1 UNK         0.0847 
     90 H90       -70.8322   30.9730  -77.1601 H         1 UNK         0.0847 
     91 H91       -73.1494   28.3784  -75.9884 H         1 UNK         0.3141 
     92 H92       -70.1765   26.5511  -75.7596 H         1 UNK         0.0743 
     93 H93       -70.3992   26.9715  -73.3112 H         1 UNK         0.0784 
     94 H94       -72.1465   26.8151  -73.4241 H         1 UNK         0.0784 
     95 H95       -71.1124   25.4262  -73.7462 H         1 UNK         0.0784 
     96 H96       -72.9688   25.8408  -75.5450 H         1 UNK         0.3213 
     97 H97       -73.8082   26.1771  -78.9149 H         1 UNK         0.0855 
     98 H98       -73.0141   23.4415  -77.7739 H         1 UNK         0.0814 
     99 H99       -72.4434   24.1182  -79.2932 H         1 UNK         0.0814 
    100 H100      -74.1415   23.7146  -79.1015 H         1 UNK         0.0814 
    101 H101      -75.0674   24.5936  -76.9381 H         1 UNK         0.3105 
    102 H102      -76.4138   27.0636  -74.8423 H         1 UNK         0.0547 
    103 H103      -77.8544   25.6472  -77.1535 H         1 UNK         0.0837 
    104 H104      -77.9097   27.3699  -76.8084 H         1 UNK         0.0837 
    105 H105      -78.6177   26.2293  -75.6761 H         1 UNK         0.0837 
    106 H106      -77.1241   24.3620  -75.0782 H         1 UNK         0.3020 
    107 H107      -74.3040   22.7249  -73.9448 H         1 UNK         0.1245 
    108 H108      -74.8591   23.7133  -71.6647 H         1 UNK         0.0781 
    109 H109      -75.1331   22.0142  -71.8568 H         1 UNK         0.0781 
    110 H110      -76.3161   24.3259  -69.7322 H         1 UNK         0.0836 
    111 H111      -78.0497   24.4778  -69.8173 H         1 UNK         0.0836 
    112 H112      -77.0288   21.9042  -73.9138 H         1 UNK         0.3022 
    113 H113      -77.4470   21.3492  -77.3514 H         1 UNK         0.0747 
    114 H114      -77.6588   18.9430  -76.7804 H         1 UNK         0.0793 
    115 H115      -75.9660   19.4029  -76.8317 H         1 UNK         0.0793 
    116 H116      -76.7643   19.1911  -75.2796 H         1 UNK         0.0793 
    117 H117      -78.9452   20.4041  -75.1343 H         1 UNK         0.3047 
    118 H118      -81.1838   21.4442  -75.2442 H         1 UNK         0.0822 
    119 H119      -81.3993   21.9816  -72.8123 H         1 UNK         0.0807 
    120 H120      -79.8718   22.8523  -72.8563 H         1 UNK         0.0807 
    121 H121      -79.9068   21.1212  -73.1367 H         1 UNK         0.0807 
    122 H122      -82.2946   23.2788  -75.6729 H         1 UNK         0.2946 
    123 H123      -82.7302   25.4199  -76.1399 H         1 UNK         0.1144 
    124 H124      -84.3273   26.4755  -74.5152 H         1 UNK         0.0793 
    125 H125      -83.2328   26.1139  -73.1812 H         1 UNK         0.0793 
    126 H126      -84.0155   24.8081  -74.0620 H         1 UNK         0.0793 
    127 H127      -80.9397   27.2073  -74.7076 H         1 UNK         0.2896 
@<TRIPOS>BOND
     1    1    2 1    
     2    1   67 1    
     3    1   68 1    
     4    1   69 1    
     5    2    3 2    
     6    2    4 am   BACKBONE|DICT|INTERRES
     7    4    5 1    
     8    4   70 1    
     9    5    6 1    
    10    5   65 1    
    11    5   71 1    
    12    6    7 1    
    13    6   72 1    
    14    6   73 1    
    15    7    8 1    
    16    8    9 1    
    17    8   74 1    
    18    8   75 1    
    19    9   10 ar   
    20    9   14 ar   
    21   10   11 ar   
    22   10   76 1    
    23   11   12 ar   
    24   11   48 1    
    25   12   13 ar   
    26   12   77 1    
    27   13   14 ar   
    28   13   15 1    
    29   14   78 1    
    30   15   16 1    
    31   15   79 1    
    32   15   80 1    
    33   16   17 1    
    34   17   18 1    
    35   17   81 1    
    36   17   82 1    
    37   18   19 1    
    38   18   22 1    
    39   18   83 1    
    40   19   20 am   BACKBONE|DICT|INTERRES
    41   19   21 2    
    42   20   84 1    
    43   20   85 1    
    44   22   23 am   BACKBONE|DICT|INTERRES
    45   22   86 1    
    46   23   24 2    
    47   23   25 1    
    48   25   26 1    
    49   25   27 1    
    50   25   87 1    
    51   26   88 1    
    52   26   89 1    
    53   26   90 1    
    54   27   28 am   BACKBONE|DICT|INTERRES
    55   27   91 1    
    56   28   29 2    
    57   28   30 1    
    58   30   31 1    
    59   30   32 1    
    60   30   92 1    
    61   31   93 1    
    62   31   94 1    
    63   31   95 1    
    64   32   33 am   BACKBONE|DICT|INTERRES
    65   32   96 1    
    66   33   34 2    
    67   33   35 1    
    68   35   36 1    
    69   35   37 1    
    70   35   97 1    
    71   36   98 1    
    72   36   99 1    
    73   36  100 1    
    74   37   38 am   BACKBONE|DICT|INTERRES
    75   37  101 1    
    76   38   39 2    
    77   38   40 1    
    78   40   41 1    
    79   40   42 1    
    80   40  102 1    
    81   41  103 1    
    82   41  104 1    
    83   41  105 1    
    84   42   43 am   BACKBONE|DICT|INTERRES
    85   42  106 1    
    86   43   44 2    
    87   43   45 1    
    88   45   46 1    
    89   45   49 1    
    90   45  107 1    
    91   46   47 1    
    92   46  108 1    
    93   46  109 1    
    94   47   48 1    
    95   48  110 1    
    96   48  111 1    
    97   49   50 am   BACKBONE|DICT|INTERRES
    98   49  112 1    
    99   50   51 2    
   100   50   52 1    
   101   52   53 1    
   102   52   54 1    
   103   52  113 1    
   104   53  114 1    
   105   53  115 1    
   106   53  116 1    
   107   54   55 am   BACKBONE|DICT|INTERRES
   108   54  117 1    
   109   55   56 2    
   110   55   57 1    
   111   57   58 1    
   112   57   59 1    
   113   57  118 1    
   114   58  119 1    
   115   58  120 1    
   116   58  121 1    
   117   59   60 am   BACKBONE|DICT|INTERRES
   118   59  122 1    
   119   60   61 2    
   120   60   62 1    
   121   62   63 1    
   122   62   64 1    
   123   62  123 1    
   124   63  124 1    
   125   63  125 1    
   126   63  126 1    
   127   64   65 am   BACKBONE|DICT|INTERRES
   128   64  127 1    
   129   65   66 2    
@<TRIPOS>SUBSTRUCTURE
     1 UNK         1 GROUP             0       ****    0 ROOT    
