@<TRIPOS>MOLECULE
3R135
127   129    1
SMALL
USER_CHARGES


@<TRIPOS>ATOM
      1 CA        -81.7246   30.5871  -77.6795 C.3       0 UNK        -0.1998 
      2 C         -81.2361   29.6181  -76.6131 C.2       0 UNK         0.4909 
      3 O         -80.1816   29.0086  -76.7821 O.2       0 UNK        -0.5240 
      4 N         -81.9936   29.4808  -75.5170 N.am      1 UNK        -0.4739 
      5 CA        -81.7325   28.5629  -74.4013 C.3       1 UNK         0.0864 
      6 C6        -82.6736   28.9016  -73.2182 C.3       11 UNK        -0.0881 
      7 S7        -82.2440   28.0865  -71.6432 S.3       11 UNK        -0.2682 
      8 C8        -81.0792   29.2646  -70.8785 C.3       11 UNK         0.0289 
      9 C9        -79.6274   28.8109  -70.9887 C.ar      11 UNK        -0.0687 
     10 C10       -79.2514   27.5487  -70.5204 C.ar      11 UNK        -0.0823 
     11 C11       -77.9161   27.1429  -70.5573 C.ar      11 UNK        -0.0830 
     12 C12       -76.9481   28.0107  -71.0673 C.ar      11 UNK        -0.1021 
     13 C13       -77.2997   29.2889  -71.5276 C.ar      11 UNK        -0.0753 
     14 C14       -78.6466   29.6722  -71.4924 C.ar      11 UNK        -0.0933 
     15 C15       -76.2728   30.2885  -72.0706 C.3       11 UNK         0.0166 
     16 S16       -74.5223   29.8565  -71.7700 S.3       11 UNK        -0.2615 
     17 C17       -73.6593   31.2478  -72.5758 C.3       11 UNK        -0.0865 
     18 CA        -73.0592   30.8821  -73.9601 C.3       10 UNK         0.0862 
     19 C         -72.4086   32.1382  -74.6125 C.2       10 UNK         0.5551 
     20 N         -71.0949   32.1889  -74.7971 N.am      10 UNK        -0.7319 
     21 O         -73.1124   33.0864  -74.9515 O.2       10 UNK        -0.5018 
     22 N         -72.1959   29.6888  -73.8847 N.am      10 UNK        -0.4509 
     23 C         -71.7633   28.9800  -74.9355 C.2       10 UNK         0.4899 
     24 O         -71.9954   29.2842  -76.1060 O.2       10 UNK        -0.4839 
     25 CA        -70.9289   27.7193  -74.6519 C.3       9 UNK         0.0222 
     26 CB        -70.7426   27.3945  -73.1545 C.3       9 UNK        -0.1966 
     27 N         -71.5945   26.5994  -75.3087 N.am      9 UNK        -0.4218 
     28 C         -71.0492   25.7752  -76.2108 C.2       9 UNK         0.5020 
     29 O         -69.8578   25.7840  -76.5252 O.2       9 UNK        -0.5274 
     30 CA        -72.0012   24.7756  -76.8945 C.3       8 UNK         0.0270 
     31 CB        -72.2127   23.5356  -76.0126 C.3       8 UNK        -0.1976 
     32 N         -73.3009   25.3651  -77.2286 N.am      8 UNK        -0.4313 
     33 C         -73.4883   26.3421  -78.1295 C.2       8 UNK         0.5041 
     34 O         -72.5952   26.7878  -78.8510 O.2       8 UNK        -0.5577 
     35 CA        -74.9020   26.9314  -78.2444 C.3       7 UNK         0.0284 
     36 CB        -75.7085   26.2175  -79.3427 C.3       7 UNK        -0.1958 
     37 N         -75.6103   26.8554  -76.9618 N.am      7 UNK        -0.4454 
     38 C         -75.7279   27.8884  -76.1158 C.2       7 UNK         0.5089 
     39 O         -75.3492   29.0305  -76.3739 O.2       7 UNK        -0.5125 
     40 CA        -76.3820   27.6272  -74.7507 C.3       6 UNK         0.0408 
     41 CB        -77.8699   27.9952  -74.7888 C.3       6 UNK        -0.1791 
     42 N         -76.2407   26.2604  -74.2488 N.am      6 UNK        -0.4762 
     43 C         -75.1043   25.7537  -73.7553 C.2       6 UNK         0.5007 
     44 O         -74.0213   26.3312  -73.8364 O.2       6 UNK        -0.5032 
     45 CA        -75.1618   24.3669  -73.0920 C.3       5 UNK         0.0783 
     46 C46       -75.5967   24.4231  -71.6036 C.3       11 UNK        -0.0857 
     47 S47       -77.4018   24.5313  -71.3225 S.3       11 UNK        -0.2512 
     48 C48       -77.5217   25.7811  -70.0073 C.3       11 UNK         0.0225 
     49 N         -75.9670   23.4475  -73.8950 N.am      5 UNK        -0.4615 
     50 C         -75.5375   22.2782  -74.3820 C.2       4 UNK         0.5053 
     51 O         -74.4488   21.7776  -74.0993 O.2       4 UNK        -0.5105 
     52 CA        -76.4584   21.5377  -75.3730 C.3       4 UNK         0.0263 
     53 CB        -77.1981   20.3950  -74.6587 C.3       4 UNK        -0.1981 
     54 N         -77.4413   22.3838  -76.0602 N.am      4 UNK        -0.4224 
     55 C         -77.1722   23.4800  -76.7841 C.2       3 UNK         0.4895 
     56 O         -76.0386   23.9271  -76.9669 O.2       3 UNK        -0.5091 
     57 CA        -78.3802   24.2611  -77.3328 C.3       3 UNK         0.0250 
     58 CB        -78.7607   23.7446  -78.7289 C.3       3 UNK        -0.1996 
     59 N         -79.5728   24.2725  -76.4710 N.am      3 UNK        -0.4254 
     60 C         -79.5957   24.6193  -75.1758 C.2       2 UNK         0.5004 
     61 O         -78.5858   24.8392  -74.5060 O.2       2 UNK        -0.5226 
     62 CA        -80.9658   24.7862  -74.5152 C.3       2 UNK         0.0269 
     63 CB        -81.0650   23.9430  -73.2324 C.3       2 UNK        -0.1926 
     64 N         -81.1058   26.1986  -74.1708 N.am      2 UNK        -0.4687 
     65 C         -81.8483   27.0841  -74.8452 C.2       1 UNK         0.5165 
     66 O         -82.6080   26.7733  -75.7674 O.2       1 UNK        -0.5079 
     67 H67       -80.9806   31.3651  -77.8481 H         1 UNK         0.0900 
     68 H68       -82.6607   31.0684  -77.3967 H         1 UNK         0.0900 
     69 H69       -81.8849   30.0592  -78.6192 H         1 UNK         0.0900 
     70 H70       -82.8625   29.9923  -75.4615 H         1 UNK         0.2959 
     71 H71       -80.7028   28.7381  -74.0824 H         1 UNK         0.1079 
     72 H72       -82.6911   29.9794  -73.0490 H         1 UNK         0.0837 
     73 H73       -83.7024   28.6325  -73.4663 H         1 UNK         0.0837 
     74 H74       -81.3282   29.3533  -69.8202 H         1 UNK         0.0685 
     75 H75       -81.2125   30.2604  -71.3031 H         1 UNK         0.0685 
     76 H76       -80.0020   26.8849  -70.1131 H         1 UNK         0.1434 
     77 H77       -75.9213   27.6771  -71.0935 H         1 UNK         0.1329 
     78 H78       -78.9286   30.6562  -71.8419 H         1 UNK         0.1335 
     79 H79       -76.4620   31.2641  -71.6200 H         1 UNK         0.0680 
     80 H80       -76.4291   30.4064  -73.1436 H         1 UNK         0.0680 
     81 H81       -74.3494   32.0891  -72.6672 H         1 UNK         0.1032 
     82 H82       -72.8695   31.5854  -71.9021 H         1 UNK         0.1032 
     83 H83       -73.8949   30.6143  -74.6094 H         1 UNK         0.0461 
     84 H84       -70.6849   33.0062  -75.2209 H         1 UNK         0.3453 
     85 H85       -70.5130   31.4129  -74.5259 H         1 UNK         0.3453 
     86 H86       -71.9787   29.3620  -72.9551 H         1 UNK         0.2984 
     87 H87       -69.9444   27.8900  -75.0916 H         1 UNK         0.0554 
     88 H88       -70.1501   26.4886  -73.0255 H         1 UNK         0.0847 
     89 H89       -71.6954   27.2352  -72.6473 H         1 UNK         0.0847 
     90 H90       -70.2125   28.1945  -72.6363 H         1 UNK         0.0847 
     91 H91       -72.5825   26.5051  -75.0861 H         1 UNK         0.3141 
     92 H92       -71.5330   24.4542  -77.8273 H         1 UNK         0.0743 
     93 H93       -72.6673   23.7936  -75.0562 H         1 UNK         0.0784 
     94 H94       -72.8550   22.8024  -76.5015 H         1 UNK         0.0784 
     95 H95       -71.2632   23.0434  -75.7985 H         1 UNK         0.0784 
     96 H96       -74.1122   24.9888  -76.7554 H         1 UNK         0.3213 
     97 H97       -74.7937   27.9747  -78.5491 H         1 UNK         0.0855 
     98 H98       -75.7440   25.1390  -79.1951 H         1 UNK         0.0814 
     99 H99       -75.2567   26.3886  -80.3206 H         1 UNK         0.0814 
    100 H100      -76.7326   26.5876  -79.3906 H         1 UNK         0.0814 
    101 H101      -75.9415   25.9414  -76.6754 H         1 UNK         0.3105 
    102 H102      -75.8899   28.2843  -74.0336 H         1 UNK         0.0547 
    103 H103      -78.3487   27.8144  -73.8271 H         1 UNK         0.0837 
    104 H104      -78.0044   29.0505  -75.0287 H         1 UNK         0.0837 
    105 H105      -78.4050   27.4181  -75.5431 H         1 UNK         0.0837 
    106 H106      -77.1037   25.7214  -74.1768 H         1 UNK         0.3020 
    107 H107      -74.1255   24.0216  -73.0926 H         1 UNK         0.1245 
    108 H108      -75.0831   25.2380  -71.0903 H         1 UNK         0.0781 
    109 H109      -75.2585   23.5128  -71.1067 H         1 UNK         0.0781 
    110 H110      -78.2658   25.4443  -69.2839 H         1 UNK         0.0836 
    111 H111      -76.5855   25.8521  -69.4520 H         1 UNK         0.0836 
    112 H112      -76.8911   23.7771  -74.1535 H         1 UNK         0.3022 
    113 H113      -75.8149   21.1048  -76.1414 H         1 UNK         0.0747 
    114 H114      -77.7733   19.7917  -75.3612 H         1 UNK         0.0793 
    115 H115      -76.4955   19.7254  -74.1604 H         1 UNK         0.0793 
    116 H116      -77.8827   20.7732  -73.8981 H         1 UNK         0.0793 
    117 H117      -78.4106   22.1251  -75.9490 H         1 UNK         0.3047 
    118 H118      -78.0646   25.3009  -77.4358 H         1 UNK         0.0822 
    119 H119      -79.5174   24.3767  -79.1940 H         1 UNK         0.0807 
    120 H120      -79.1495   22.7262  -78.6909 H         1 UNK         0.0807 
    121 H121      -77.8962   23.7382  -79.3945 H         1 UNK         0.0807 
    122 H122      -80.4542   24.1114  -76.9376 H         1 UNK         0.2946 
    123 H123      -81.7515   24.4669  -75.2037 H         1 UNK         0.1144 
    124 H124      -82.0394   24.0607  -72.7583 H         1 UNK         0.0793 
    125 H125      -80.3045   24.2218  -72.5014 H         1 UNK         0.0793 
    126 H126      -80.9343   22.8824  -73.4507 H         1 UNK         0.0793 
    127 H127      -80.5035   26.5267  -73.4282 H         1 UNK         0.2896 
@<TRIPOS>BOND
     1    1    2 1    
     2    1   67 1    
     3    1   68 1    
     4    1   69 1    
     5    2    3 2    
     6    2    4 am   BACKBONE|DICT|INTERRES
     7    4    5 1    
     8    4   70 1    
     9    5    6 1    
    10    5   65 1    
    11    5   71 1    
    12    6    7 1    
    13    6   72 1    
    14    6   73 1    
    15    7    8 1    
    16    8    9 1    
    17    8   74 1    
    18    8   75 1    
    19    9   10 ar   
    20    9   14 ar   
    21   10   11 ar   
    22   10   76 1    
    23   11   12 ar   
    24   11   48 1    
    25   12   13 ar   
    26   12   77 1    
    27   13   14 ar   
    28   13   15 1    
    29   14   78 1    
    30   15   16 1    
    31   15   79 1    
    32   15   80 1    
    33   16   17 1    
    34   17   18 1    
    35   17   81 1    
    36   17   82 1    
    37   18   19 1    
    38   18   22 1    
    39   18   83 1    
    40   19   20 am   BACKBONE|DICT|INTERRES
    41   19   21 2    
    42   20   84 1    
    43   20   85 1    
    44   22   23 am   BACKBONE|DICT|INTERRES
    45   22   86 1    
    46   23   24 2    
    47   23   25 1    
    48   25   26 1    
    49   25   27 1    
    50   25   87 1    
    51   26   88 1    
    52   26   89 1    
    53   26   90 1    
    54   27   28 am   BACKBONE|DICT|INTERRES
    55   27   91 1    
    56   28   29 2    
    57   28   30 1    
    58   30   31 1    
    59   30   32 1    
    60   30   92 1    
    61   31   93 1    
    62   31   94 1    
    63   31   95 1    
    64   32   33 am   BACKBONE|DICT|INTERRES
    65   32   96 1    
    66   33   34 2    
    67   33   35 1    
    68   35   36 1    
    69   35   37 1    
    70   35   97 1    
    71   36   98 1    
    72   36   99 1    
    73   36  100 1    
    74   37   38 am   BACKBONE|DICT|INTERRES
    75   37  101 1    
    76   38   39 2    
    77   38   40 1    
    78   40   41 1    
    79   40   42 1    
    80   40  102 1    
    81   41  103 1    
    82   41  104 1    
    83   41  105 1    
    84   42   43 am   BACKBONE|DICT|INTERRES
    85   42  106 1    
    86   43   44 2    
    87   43   45 1    
    88   45   46 1    
    89   45   49 1    
    90   45  107 1    
    91   46   47 1    
    92   46  108 1    
    93   46  109 1    
    94   47   48 1    
    95   48  110 1    
    96   48  111 1    
    97   49   50 am   BACKBONE|DICT|INTERRES
    98   49  112 1    
    99   50   51 2    
   100   50   52 1    
   101   52   53 1    
   102   52   54 1    
   103   52  113 1    
   104   53  114 1    
   105   53  115 1    
   106   53  116 1    
   107   54   55 am   BACKBONE|DICT|INTERRES
   108   54  117 1    
   109   55   56 2    
   110   55   57 1    
   111   57   58 1    
   112   57   59 1    
   113   57  118 1    
   114   58  119 1    
   115   58  120 1    
   116   58  121 1    
   117   59   60 am   BACKBONE|DICT|INTERRES
   118   59  122 1    
   119   60   61 2    
   120   60   62 1    
   121   62   63 1    
   122   62   64 1    
   123   62  123 1    
   124   63  124 1    
   125   63  125 1    
   126   63  126 1    
   127   64   65 am   BACKBONE|DICT|INTERRES
   128   64  127 1    
   129   65   66 2    
@<TRIPOS>SUBSTRUCTURE
     1 UNK         1 GROUP             0       ****    0 ROOT    
