@<TRIPOS>MOLECULE
3R135
127   129    1
SMALL
USER_CHARGES


@<TRIPOS>ATOM
      1 CA        -84.9746   27.2260  -73.7994 C.3       0 UNK        -0.1998 
      2 C         -84.0655   27.6806  -72.6602 C.2       0 UNK         0.4909 
      3 O         -84.4729   27.6092  -71.5026 O.2       0 UNK        -0.5240 
      4 N         -82.8410   28.1642  -72.9176 N.am      1 UNK        -0.4739 
      5 CA        -82.1691   28.2784  -74.2202 C.3       1 UNK         0.0864 
      6 C6        -80.8528   29.0921  -74.1320 C.3       11 UNK        -0.0881 
      7 S7        -81.0764   30.7893  -73.4918 S.3       11 UNK        -0.2682 
      8 C8        -80.8709   30.6042  -71.6859 C.3       11 UNK         0.0289 
      9 C9        -79.5203   30.0199  -71.2964 C.ar      11 UNK        -0.0687 
     10 C10       -79.4048   28.6694  -70.9505 C.ar      11 UNK        -0.0823 
     11 C11       -78.1652   28.1265  -70.5995 C.ar      11 UNK        -0.0830 
     12 C12       -77.0447   28.9627  -70.5431 C.ar      11 UNK        -0.1021 
     13 C13       -77.1423   30.3074  -70.9131 C.ar      11 UNK        -0.0753 
     14 C14       -78.3839   30.8318  -71.2827 C.ar      11 UNK        -0.0933 
     15 C15       -75.9040   31.1881  -70.9525 C.3       11 UNK         0.0166 
     16 S16       -74.9579   30.9076  -72.4843 S.3       11 UNK        -0.2615 
     17 C17       -73.9306   29.4683  -72.0270 C.3       11 UNK        -0.0865 
     18 CA        -72.5140   29.5638  -72.6522 C.3       10 UNK         0.0862 
     19 C         -71.4795   28.6529  -71.9229 C.2       10 UNK         0.5551 
     20 N         -70.6126   27.9225  -72.6132 N.am      10 UNK        -0.7319 
     21 O         -71.4469   28.6198  -70.6953 O.2       10 UNK        -0.5018 
     22 N         -72.5695   29.3589  -74.1085 N.am      10 UNK        -0.4509 
     23 C         -71.7706   29.9494  -75.0038 C.2       10 UNK         0.4899 
     24 O         -70.9496   30.8248  -74.7241 O.2       10 UNK        -0.4839 
     25 CA        -71.8930   29.4272  -76.4495 C.3       9 UNK         0.0222 
     26 CB        -70.8313   30.0182  -77.4005 C.3       9 UNK        -0.1966 
     27 N         -71.8826   27.9594  -76.5085 N.am      9 UNK        -0.4218 
     28 C         -70.9363   27.1332  -76.0327 C.2       9 UNK         0.5020 
     29 O         -69.8900   27.5222  -75.5123 O.2       9 UNK        -0.5274 
     30 CA        -71.2052   25.6177  -76.0854 C.3       8 UNK         0.0270 
     31 CB        -71.4173   25.0695  -74.6641 C.3       8 UNK        -0.1976 
     32 N         -72.3536   25.2486  -76.9159 N.am      8 UNK        -0.4313 
     33 C         -72.3535   25.2579  -78.2556 C.2       8 UNK         0.5041 
     34 O         -71.3642   25.5252  -78.9389 O.2       8 UNK        -0.5577 
     35 CA        -73.6876   24.9462  -78.9518 C.3       7 UNK         0.0284 
     36 CB        -73.8883   23.4271  -79.0719 C.3       7 UNK        -0.1958 
     37 N         -74.8443   25.5507  -78.2819 N.am      7 UNK        -0.4454 
     38 C         -75.0547   26.8703  -78.1609 C.2       7 UNK         0.5089 
     39 O         -74.2913   27.7285  -78.6030 O.2       7 UNK        -0.5125 
     40 CA        -76.3022   27.3117  -77.3759 C.3       6 UNK         0.0408 
     41 CB        -77.5798   27.1184  -78.2074 C.3       6 UNK        -0.1791 
     42 N         -76.4338   26.6163  -76.0956 N.am      6 UNK        -0.4762 
     43 C         -75.5613   26.7169  -75.0819 C.2       6 UNK         0.5007 
     44 O         -74.5703   27.4498  -75.0914 O.2       6 UNK        -0.5032 
     45 CA        -75.8166   25.8187  -73.8588 C.3       5 UNK         0.0783 
     46 C46       -76.8308   26.4783  -72.8944 C.3       11 UNK        -0.0857 
     47 S47       -76.6773   25.8090  -71.2046 S.3       11 UNK        -0.2512 
     48 C48       -78.0468   26.6315  -70.3122 C.3       11 UNK         0.0225 
     49 N         -76.2240   24.4669  -74.2552 N.am      5 UNK        -0.4615 
     50 C         -75.4508   23.6048  -74.9298 C.2       4 UNK         0.5053 
     51 O         -74.2944   23.8437  -75.2740 O.2       4 UNK        -0.5105 
     52 CA        -76.0948   22.2681  -75.3306 C.3       4 UNK         0.0263 
     53 CB        -76.1651   21.3133  -74.1281 C.3       4 UNK        -0.1981 
     54 N         -77.4306   22.4407  -75.9058 N.am      4 UNK        -0.4224 
     55 C         -77.6837   23.0903  -77.0516 C.2       3 UNK         0.4895 
     56 O         -76.8142   23.5752  -77.7728 O.2       3 UNK        -0.5091 
     57 CA        -79.1589   23.2702  -77.4417 C.3       3 UNK         0.0250 
     58 CB        -79.6564   22.0564  -78.2425 C.3       3 UNK        -0.1996 
     59 N         -80.0490   23.5077  -76.3012 N.am      3 UNK        -0.4254 
     60 C         -79.9433   24.5341  -75.4458 C.2       2 UNK         0.5004 
     61 O         -79.0345   25.3686  -75.4738 O.2       2 UNK        -0.5226 
     62 CA        -81.0087   24.6032  -74.3392 C.3       2 UNK         0.0269 
     63 CB        -80.4991   23.8904  -73.0752 C.3       2 UNK        -0.1926 
     64 N         -81.3751   25.9767  -73.9890 N.am      2 UNK        -0.4687 
     65 C         -81.8820   26.8923  -74.8286 C.2       1 UNK         0.5165 
     66 O         -82.1618   26.6739  -76.0077 O.2       1 UNK        -0.5079 
     67 H67       -84.9374   27.9075  -74.6479 H         1 UNK         0.0900 
     68 H68       -86.0101   27.1858  -73.4623 H         1 UNK         0.0900 
     69 H69       -84.6964   26.2278  -74.1361 H         1 UNK         0.0900 
     70 H70       -82.2968   28.4889  -72.1343 H         1 UNK         0.2959 
     71 H71       -82.8369   28.8082  -74.9022 H         1 UNK         0.1079 
     72 H72       -80.0985   28.5673  -73.5463 H         1 UNK         0.0837 
     73 H73       -80.4173   29.1906  -75.1287 H         1 UNK         0.0837 
     74 H74       -80.9786   31.5882  -71.2272 H         1 UNK         0.0685 
     75 H75       -81.6827   30.0029  -71.2772 H         1 UNK         0.0685 
     76 H76       -80.2792   28.0344  -70.9737 H         1 UNK         0.1434 
     77 H77       -76.0852   28.5510  -70.2637 H         1 UNK         0.1329 
     78 H78       -78.4664   31.8705  -71.5726 H         1 UNK         0.1335 
     79 H79       -75.2819   31.0141  -70.0735 H         1 UNK         0.0680 
     80 H80       -76.1916   32.2399  -70.9122 H         1 UNK         0.0680 
     81 H81       -74.4315   28.5504  -72.3378 H         1 UNK         0.1032 
     82 H82       -73.8685   29.4240  -70.9387 H         1 UNK         0.1032 
     83 H83       -72.1521   30.5768  -72.4660 H         1 UNK         0.0461 
     84 H84       -69.9503   27.3538  -72.1108 H         1 UNK         0.3453 
     85 H85       -70.5633   27.9735  -73.6231 H         1 UNK         0.3453 
     86 H86       -73.2225   28.6516  -74.4365 H         1 UNK         0.2984 
     87 H87       -72.8741   29.7408  -76.8096 H         1 UNK         0.0554 
     88 H88       -70.9635   29.6501  -78.4179 H         1 UNK         0.0847 
     89 H89       -69.8183   29.7694  -77.0826 H         1 UNK         0.0847 
     90 H90       -70.9026   31.1059  -77.4376 H         1 UNK         0.0847 
     91 H91       -72.7210   27.5402  -76.8914 H         1 UNK         0.3141 
     92 H92       -70.3138   25.1444  -76.5024 H         1 UNK         0.0743 
     93 H93       -72.2841   25.5248  -74.1830 H         1 UNK         0.0784 
     94 H94       -71.5667   23.9897  -74.6728 H         1 UNK         0.0784 
     95 H95       -70.5508   25.2685  -74.0322 H         1 UNK         0.0784 
     96 H96       -73.1900   24.9410  -76.4240 H         1 UNK         0.3213 
     97 H97       -73.6367   25.3628  -79.9600 H         1 UNK         0.0855 
     98 H98       -73.9950   22.9561  -78.0938 H         1 UNK         0.0814 
     99 H99       -73.0397   22.9577  -79.5713 H         1 UNK         0.0814 
    100 H100      -74.7783   23.1904  -79.6552 H         1 UNK         0.0814 
    101 H101      -75.5459   24.9056  -77.9216 H         1 UNK         0.3105 
    102 H102      -76.2003   28.3774  -77.1604 H         1 UNK         0.0547 
    103 H103      -77.5255   27.6810  -79.1401 H         1 UNK         0.0837 
    104 H104      -77.7404   26.0725  -78.4675 H         1 UNK         0.0837 
    105 H105      -78.4610   27.4665  -77.6679 H         1 UNK         0.0837 
    106 H106      -77.2508   26.0228  -75.9731 H         1 UNK         0.3020 
    107 H107      -74.8561   25.7325  -73.3449 H         1 UNK         0.1245 
    108 H108      -76.6597   27.5547  -72.8424 H         1 UNK         0.0781 
    109 H109      -77.8558   26.3530  -73.2476 H         1 UNK         0.0781 
    110 H110      -78.9736   26.1173  -70.5712 H         1 UNK         0.0836 
    111 H111      -77.9059   26.4872  -69.2403 H         1 UNK         0.0836 
    112 H112      -77.1786   24.2116  -74.0537 H         1 UNK         0.3022 
    113 H113      -75.4597   21.8108  -76.0925 H         1 UNK         0.0747 
    114 H114      -76.5392   20.3325  -74.4222 H         1 UNK         0.0793 
    115 H115      -75.1760   21.1633  -73.6927 H         1 UNK         0.0793 
    116 H116      -76.8132   21.6976  -73.3393 H         1 UNK         0.0793 
    117 H117      -78.2099   22.0714  -75.3817 H         1 UNK         0.3047 
    118 H118      -79.2189   24.1490  -78.0868 H         1 UNK         0.0822 
    119 H119      -80.6678   22.2149  -78.6173 H         1 UNK         0.0807 
    120 H120      -79.6588   21.1463  -77.6412 H         1 UNK         0.0807 
    121 H121      -79.0183   21.8729  -79.1084 H         1 UNK         0.0807 
    122 H122      -80.8174   22.8611  -76.1923 H         1 UNK         0.2946 
    123 H123      -81.9133   24.1022  -74.6910 H         1 UNK         0.1144 
    124 H124      -80.2435   22.8509  -73.2850 H         1 UNK         0.0793 
    125 H125      -81.2567   23.8816  -72.2913 H         1 UNK         0.0793 
    126 H126      -79.6059   24.3708  -72.6727 H         1 UNK         0.0793 
    127 H127      -81.2002   26.2562  -73.0359 H         1 UNK         0.2896 
@<TRIPOS>BOND
     1    1    2 1    
     2    1   67 1    
     3    1   68 1    
     4    1   69 1    
     5    2    3 2    
     6    2    4 am   BACKBONE|DICT|INTERRES
     7    4    5 1    
     8    4   70 1    
     9    5    6 1    
    10    5   65 1    
    11    5   71 1    
    12    6    7 1    
    13    6   72 1    
    14    6   73 1    
    15    7    8 1    
    16    8    9 1    
    17    8   74 1    
    18    8   75 1    
    19    9   10 ar   
    20    9   14 ar   
    21   10   11 ar   
    22   10   76 1    
    23   11   12 ar   
    24   11   48 1    
    25   12   13 ar   
    26   12   77 1    
    27   13   14 ar   
    28   13   15 1    
    29   14   78 1    
    30   15   16 1    
    31   15   79 1    
    32   15   80 1    
    33   16   17 1    
    34   17   18 1    
    35   17   81 1    
    36   17   82 1    
    37   18   19 1    
    38   18   22 1    
    39   18   83 1    
    40   19   20 am   BACKBONE|DICT|INTERRES
    41   19   21 2    
    42   20   84 1    
    43   20   85 1    
    44   22   23 am   BACKBONE|DICT|INTERRES
    45   22   86 1    
    46   23   24 2    
    47   23   25 1    
    48   25   26 1    
    49   25   27 1    
    50   25   87 1    
    51   26   88 1    
    52   26   89 1    
    53   26   90 1    
    54   27   28 am   BACKBONE|DICT|INTERRES
    55   27   91 1    
    56   28   29 2    
    57   28   30 1    
    58   30   31 1    
    59   30   32 1    
    60   30   92 1    
    61   31   93 1    
    62   31   94 1    
    63   31   95 1    
    64   32   33 am   BACKBONE|DICT|INTERRES
    65   32   96 1    
    66   33   34 2    
    67   33   35 1    
    68   35   36 1    
    69   35   37 1    
    70   35   97 1    
    71   36   98 1    
    72   36   99 1    
    73   36  100 1    
    74   37   38 am   BACKBONE|DICT|INTERRES
    75   37  101 1    
    76   38   39 2    
    77   38   40 1    
    78   40   41 1    
    79   40   42 1    
    80   40  102 1    
    81   41  103 1    
    82   41  104 1    
    83   41  105 1    
    84   42   43 am   BACKBONE|DICT|INTERRES
    85   42  106 1    
    86   43   44 2    
    87   43   45 1    
    88   45   46 1    
    89   45   49 1    
    90   45  107 1    
    91   46   47 1    
    92   46  108 1    
    93   46  109 1    
    94   47   48 1    
    95   48  110 1    
    96   48  111 1    
    97   49   50 am   BACKBONE|DICT|INTERRES
    98   49  112 1    
    99   50   51 2    
   100   50   52 1    
   101   52   53 1    
   102   52   54 1    
   103   52  113 1    
   104   53  114 1    
   105   53  115 1    
   106   53  116 1    
   107   54   55 am   BACKBONE|DICT|INTERRES
   108   54  117 1    
   109   55   56 2    
   110   55   57 1    
   111   57   58 1    
   112   57   59 1    
   113   57  118 1    
   114   58  119 1    
   115   58  120 1    
   116   58  121 1    
   117   59   60 am   BACKBONE|DICT|INTERRES
   118   59  122 1    
   119   60   61 2    
   120   60   62 1    
   121   62   63 1    
   122   62   64 1    
   123   62  123 1    
   124   63  124 1    
   125   63  125 1    
   126   63  126 1    
   127   64   65 am   BACKBONE|DICT|INTERRES
   128   64  127 1    
   129   65   66 2    
@<TRIPOS>SUBSTRUCTURE
     1 UNK         1 GROUP             0       ****    0 ROOT    
