@<TRIPOS>MOLECULE
3R135
127   129    1
SMALL
USER_CHARGES


@<TRIPOS>ATOM
      1 CA        -84.4752   27.1690  -70.9740 C.3       0 UNK        -0.1998 
      2 C         -83.3225   26.7153  -71.8578 C.2       0 UNK         0.4909 
      3 O         -83.3398   26.9755  -73.0615 O.2       0 UNK        -0.5240 
      4 N         -82.3251   26.0483  -71.2641 N.am      1 UNK        -0.4739 
      5 CA        -81.1532   25.4947  -71.9490 C.3       1 UNK         0.0864 
      6 C6        -79.8457   25.7342  -71.1436 C.3       11 UNK        -0.0881 
      7 S7        -79.4047   27.5020  -71.0975 S.3       11 UNK        -0.2682 
      8 C8        -78.1437   27.5420  -72.4072 C.3       11 UNK         0.0289 
      9 C9        -77.7711   28.9661  -72.7795 C.ar      11 UNK        -0.0687 
     10 C10       -78.5050   29.6464  -73.7546 C.ar      11 UNK        -0.0823 
     11 C11       -78.1312   30.9332  -74.1553 C.ar      11 UNK        -0.0830 
     12 C12       -77.0393   31.5534  -73.5416 C.ar      11 UNK        -0.1021 
     13 C13       -76.3094   30.8894  -72.5520 C.ar      11 UNK        -0.0753 
     14 C14       -76.6768   29.5932  -72.1775 C.ar      11 UNK        -0.0933 
     15 C15       -75.1107   31.5665  -71.9078 C.3       11 UNK         0.0166 
     16 S16       -73.6748   31.4984  -73.0210 S.3       11 UNK        -0.2615 
     17 C17       -72.2972   31.1561  -71.8669 C.3       11 UNK        -0.0865 
     18 CA        -71.9813   29.6427  -71.6725 C.3       10 UNK         0.0862 
     19 C         -72.9316   28.9395  -70.6680 C.2       10 UNK         0.5551 
     20 N         -72.8968   29.3346  -69.4027 N.am      10 UNK        -0.7319 
     21 O         -73.7020   28.0472  -71.0186 O.2       10 UNK        -0.5018 
     22 N         -71.9368   28.9104  -72.9395 N.am      10 UNK        -0.4509 
     23 C         -70.9419   28.9035  -73.8284 C.2       10 UNK         0.4899 
     24 O         -69.8860   29.5186  -73.6710 O.2       10 UNK        -0.4839 
     25 CA        -71.1715   28.1036  -75.1282 C.3       9 UNK         0.0222 
     26 CB        -69.8993   27.3709  -75.6028 C.3       9 UNK        -0.1966 
     27 N         -72.3222   27.1889  -75.0907 N.am      9 UNK        -0.4218 
     28 C         -72.4833   26.0992  -74.3213 C.2       9 UNK         0.5020 
     29 O         -71.6722   25.7186  -73.4765 O.2       9 UNK        -0.5274 
     30 CA        -73.7707   25.2883  -74.5457 C.3       8 UNK         0.0270 
     31 CB        -74.9684   25.9533  -73.8448 C.3       8 UNK        -0.1976 
     32 N         -74.0722   25.1180  -75.9667 N.am      8 UNK        -0.4313 
     33 C         -73.3298   24.4220  -76.8392 C.2       8 UNK         0.5041 
     34 O         -72.3471   23.7485  -76.5272 O.2       8 UNK        -0.5577 
     35 CA        -73.7411   24.5167  -78.3163 C.3       7 UNK         0.0284 
     36 CB        -74.9046   23.5624  -78.6322 C.3       7 UNK        -0.1958 
     37 N         -74.1084   25.8867  -78.6812 N.am      7 UNK        -0.4454 
     38 C         -73.2264   26.8586  -78.9525 C.2       7 UNK         0.5089 
     39 O         -72.0077   26.6877  -78.9830 O.2       7 UNK        -0.5125 
     40 CA        -73.7908   28.2599  -79.2507 C.3       6 UNK         0.0408 
     41 CB        -73.9075   28.4755  -80.7680 C.3       6 UNK        -0.1791 
     42 N         -75.0920   28.5179  -78.6271 N.am      6 UNK        -0.4762 
     43 C         -75.2778   28.7321  -77.3165 C.2       6 UNK         0.5007 
     44 O         -74.3704   28.7077  -76.4841 O.2       6 UNK        -0.5032 
     45 CA        -76.7366   28.9471  -76.8613 C.3       5 UNK         0.0783 
     46 C46       -77.2036   30.3925  -77.1862 C.3       11 UNK        -0.0857 
     47 S47       -78.9688   30.6838  -76.8043 S.3       11 UNK        -0.2512 
     48 C48       -78.8929   31.6518  -75.2608 C.3       11 UNK         0.0225 
     49 N         -77.6638   27.9331  -77.3878 N.am      5 UNK        -0.4615 
     50 C         -77.5224   26.6064  -77.2867 C.2       4 UNK         0.5053 
     51 O         -76.5110   26.0575  -76.8494 O.2       4 UNK        -0.5105 
     52 CA        -78.6859   25.7478  -77.8111 C.3       4 UNK         0.0263 
     53 CB        -78.6008   25.6212  -79.3413 C.3       4 UNK        -0.1981 
     54 N         -78.6899   24.4029  -77.2256 N.am      4 UNK        -0.4224 
     55 C         -78.8759   24.1312  -75.9272 C.2       3 UNK         0.4895 
     56 O         -79.1530   24.9806  -75.0733 O.2       3 UNK        -0.5091 
     57 CA        -78.7088   22.6616  -75.5134 C.3       3 UNK         0.0250 
     58 CB        -77.2266   22.2448  -75.5271 C.3       3 UNK        -0.1996 
     59 N         -79.2343   22.5184  -74.1624 N.am      3 UNK        -0.4254 
     60 C         -79.9657   21.5070  -73.6823 C.2       2 UNK         0.5004 
     61 O         -80.1996   20.4707  -74.3052 O.2       2 UNK        -0.5226 
     62 CA        -80.5428   21.6889  -72.2631 C.3       2 UNK         0.0269 
     63 CB        -79.7366   20.8667  -71.2443 C.3       2 UNK        -0.1926 
     64 N         -80.5626   23.0949  -71.8366 N.am      2 UNK        -0.4687 
     65 C         -81.4237   24.0148  -72.2991 C.2       1 UNK         0.5165 
     66 O         -82.3874   23.7267  -73.0116 O.2       1 UNK        -0.5079 
     67 H67       -84.3275   26.8855  -69.9320 H         1 UNK         0.0900 
     68 H68       -85.4087   26.7238  -71.3173 H         1 UNK         0.0900 
     69 H69       -84.5776   28.2529  -71.0185 H         1 UNK         0.0900 
     70 H70       -82.3827   25.8544  -70.2743 H         1 UNK         0.2959 
     71 H71       -81.0274   25.9906  -72.9149 H         1 UNK         0.1079 
     72 H72       -79.9476   25.3755  -70.1177 H         1 UNK         0.0837 
     73 H73       -79.0031   25.1930  -71.5781 H         1 UNK         0.0837 
     74 H74       -78.5151   27.0197  -73.2907 H         1 UNK         0.0685 
     75 H75       -77.2601   26.9947  -72.0748 H         1 UNK         0.0685 
     76 H76       -79.3495   29.1614  -74.2255 H         1 UNK         0.1434 
     77 H77       -76.7416   32.5485  -73.8432 H         1 UNK         0.1329 
     78 H78       -76.1066   29.0674  -71.4242 H         1 UNK         0.1335 
     79 H79       -75.3438   32.6086  -71.6846 H         1 UNK         0.0680 
     80 H80       -74.8813   31.0932  -70.9527 H         1 UNK         0.0680 
     81 H81       -72.4755   31.6578  -70.9143 H         1 UNK         0.1032 
     82 H82       -71.4128   31.6433  -72.2798 H         1 UNK         0.1032 
     83 H83       -70.9881   29.5622  -71.2264 H         1 UNK         0.0461 
     84 H84       -73.5069   28.8874  -68.7366 H         1 UNK         0.3453 
     85 H85       -72.2604   30.0523  -69.0930 H         1 UNK         0.3453 
     86 H86       -72.7587   28.3500  -73.1189 H         1 UNK         0.2984 
     87 H87       -71.4203   28.8459  -75.8879 H         1 UNK         0.0554 
     88 H88       -70.0764   26.8373  -76.5371 H         1 UNK         0.0847 
     89 H89       -69.5476   26.6493  -74.8650 H         1 UNK         0.0847 
     90 H90       -69.0849   28.0737  -75.7825 H         1 UNK         0.0847 
     91 H91       -73.0934   27.4618  -75.6955 H         1 UNK         0.3141 
     92 H92       -73.6251   24.2967  -74.1124 H         1 UNK         0.0743 
     93 H93       -75.1778   26.9447  -74.2493 H         1 UNK         0.0784 
     94 H94       -75.8736   25.3549  -73.9528 H         1 UNK         0.0784 
     95 H95       -74.7803   26.0697  -72.7765 H         1 UNK         0.0784 
     96 H96       -74.9155   25.5784  -76.3117 H         1 UNK         0.3213 
     97 H97       -72.8839   24.2105  -78.9205 H         1 UNK         0.0855 
     98 H98       -75.8070   23.8244  -78.0814 H         1 UNK         0.0814 
     99 H99       -74.6479   22.5357  -78.3681 H         1 UNK         0.0814 
    100 H100      -75.1467   23.5726  -79.6949 H         1 UNK         0.0814 
    101 H101      -75.0858   26.1324  -78.6072 H         1 UNK         0.3105 
    102 H102      -73.0772   28.9887  -78.8599 H         1 UNK         0.0547 
    103 H103      -72.9456   28.3200  -81.2588 H         1 UNK         0.0837 
    104 H104      -74.6192   27.7849  -81.2220 H         1 UNK         0.0837 
    105 H105      -74.2267   29.4911  -81.0021 H         1 UNK         0.0837 
    106 H106      -75.8981   28.5321  -79.2360 H         1 UNK         0.3020 
    107 H107      -76.7354   28.8286  -75.7761 H         1 UNK         0.1245 
    108 H108      -77.0669   30.6102  -78.2472 H         1 UNK         0.0781 
    109 H109      -76.5912   31.1203  -76.6500 H         1 UNK         0.0781 
    110 H110      -79.9089   31.8525  -74.9184 H         1 UNK         0.0836 
    111 H111      -78.4443   32.6225  -75.4779 H         1 UNK         0.0836 
    112 H112      -78.5235   28.3016  -77.7692 H         1 UNK         0.3022 
    113 H113      -79.6248   26.2366  -77.5428 H         1 UNK         0.0747 
    114 H114      -79.4353   25.0428  -79.7383 H         1 UNK         0.0793 
    115 H115      -78.6339   26.6002  -79.8213 H         1 UNK         0.0793 
    116 H116      -77.6762   25.1353  -79.6564 H         1 UNK         0.0793 
    117 H117      -78.4507   23.6447  -77.8471 H         1 UNK         0.3047 
    118 H118      -79.2800   22.0375  -76.2041 H         1 UNK         0.0822 
    119 H119      -76.8224   22.2599  -76.5389 H         1 UNK         0.0807 
    120 H120      -77.0964   21.2318  -75.1458 H         1 UNK         0.0807 
    121 H121      -76.6132   22.9123  -74.9198 H         1 UNK         0.0807 
    122 H122      -79.1599   23.3616  -73.6096 H         1 UNK         0.2946 
    123 H123      -81.5681   21.3114  -72.2778 H         1 UNK         0.1144 
    124 H124      -79.7272   19.8102  -71.5164 H         1 UNK         0.0793 
    125 H125      -80.1684   20.9378  -70.2458 H         1 UNK         0.0793 
    126 H126      -78.6986   21.1972  -71.1875 H         1 UNK         0.0793 
    127 H127      -79.8161   23.3883  -71.2230 H         1 UNK         0.2896 
@<TRIPOS>BOND
     1    1    2 1    
     2    1   67 1    
     3    1   68 1    
     4    1   69 1    
     5    2    3 2    
     6    2    4 am   BACKBONE|DICT|INTERRES
     7    4    5 1    
     8    4   70 1    
     9    5    6 1    
    10    5   65 1    
    11    5   71 1    
    12    6    7 1    
    13    6   72 1    
    14    6   73 1    
    15    7    8 1    
    16    8    9 1    
    17    8   74 1    
    18    8   75 1    
    19    9   10 ar   
    20    9   14 ar   
    21   10   11 ar   
    22   10   76 1    
    23   11   12 ar   
    24   11   48 1    
    25   12   13 ar   
    26   12   77 1    
    27   13   14 ar   
    28   13   15 1    
    29   14   78 1    
    30   15   16 1    
    31   15   79 1    
    32   15   80 1    
    33   16   17 1    
    34   17   18 1    
    35   17   81 1    
    36   17   82 1    
    37   18   19 1    
    38   18   22 1    
    39   18   83 1    
    40   19   20 am   BACKBONE|DICT|INTERRES
    41   19   21 2    
    42   20   84 1    
    43   20   85 1    
    44   22   23 am   BACKBONE|DICT|INTERRES
    45   22   86 1    
    46   23   24 2    
    47   23   25 1    
    48   25   26 1    
    49   25   27 1    
    50   25   87 1    
    51   26   88 1    
    52   26   89 1    
    53   26   90 1    
    54   27   28 am   BACKBONE|DICT|INTERRES
    55   27   91 1    
    56   28   29 2    
    57   28   30 1    
    58   30   31 1    
    59   30   32 1    
    60   30   92 1    
    61   31   93 1    
    62   31   94 1    
    63   31   95 1    
    64   32   33 am   BACKBONE|DICT|INTERRES
    65   32   96 1    
    66   33   34 2    
    67   33   35 1    
    68   35   36 1    
    69   35   37 1    
    70   35   97 1    
    71   36   98 1    
    72   36   99 1    
    73   36  100 1    
    74   37   38 am   BACKBONE|DICT|INTERRES
    75   37  101 1    
    76   38   39 2    
    77   38   40 1    
    78   40   41 1    
    79   40   42 1    
    80   40  102 1    
    81   41  103 1    
    82   41  104 1    
    83   41  105 1    
    84   42   43 am   BACKBONE|DICT|INTERRES
    85   42  106 1    
    86   43   44 2    
    87   43   45 1    
    88   45   46 1    
    89   45   49 1    
    90   45  107 1    
    91   46   47 1    
    92   46  108 1    
    93   46  109 1    
    94   47   48 1    
    95   48  110 1    
    96   48  111 1    
    97   49   50 am   BACKBONE|DICT|INTERRES
    98   49  112 1    
    99   50   51 2    
   100   50   52 1    
   101   52   53 1    
   102   52   54 1    
   103   52  113 1    
   104   53  114 1    
   105   53  115 1    
   106   53  116 1    
   107   54   55 am   BACKBONE|DICT|INTERRES
   108   54  117 1    
   109   55   56 2    
   110   55   57 1    
   111   57   58 1    
   112   57   59 1    
   113   57  118 1    
   114   58  119 1    
   115   58  120 1    
   116   58  121 1    
   117   59   60 am   BACKBONE|DICT|INTERRES
   118   59  122 1    
   119   60   61 2    
   120   60   62 1    
   121   62   63 1    
   122   62   64 1    
   123   62  123 1    
   124   63  124 1    
   125   63  125 1    
   126   63  126 1    
   127   64   65 am   BACKBONE|DICT|INTERRES
   128   64  127 1    
   129   65   66 2    
@<TRIPOS>SUBSTRUCTURE
     1 UNK         1 GROUP             0       ****    0 ROOT    
