@<TRIPOS>MOLECULE
3R135
127   129    1
SMALL
USER_CHARGES


@<TRIPOS>ATOM
      1 CA        -82.4839   28.1874  -69.7684 C.3       0 UNK        -0.1998 
      2 C         -82.7076   27.7611  -71.2118 C.2       0 UNK         0.4909 
      3 O         -83.7752   27.2419  -71.5400 O.2       0 UNK        -0.5240 
      4 N         -81.7118   27.9860  -72.0769 N.am      1 UNK        -0.4739 
      5 CA        -81.7232   27.5873  -73.4863 C.3       1 UNK         0.0864 
      6 C6        -80.6144   28.2943  -74.3053 C.3       11 UNK        -0.0881 
      7 S7        -80.7402   30.1168  -74.3406 S.3       11 UNK        -0.2682 
      8 C8        -79.7499   30.6658  -72.9074 C.3       11 UNK         0.0289 
      9 C9        -78.3959   29.9762  -72.8075 C.ar      11 UNK        -0.0687 
     10 C10       -78.1812   28.9985  -71.8318 C.ar      11 UNK        -0.0823 
     11 C11       -76.9524   28.3420  -71.7365 C.ar      11 UNK        -0.0830 
     12 C12       -75.9172   28.6995  -72.6066 C.ar      11 UNK        -0.1021 
     13 C13       -76.1167   29.6768  -73.5867 C.ar      11 UNK        -0.0753 
     14 C14       -77.3609   30.3081  -73.6864 C.ar      11 UNK        -0.0933 
     15 C15       -74.9937   30.0360  -74.5499 C.3       11 UNK         0.0166 
     16 S16       -74.3762   31.7274  -74.2750 S.3       11 UNK        -0.2615 
     17 C17       -73.5502   31.5618  -72.6537 C.3       11 UNK        -0.0865 
     18 CA        -72.0521   31.9836  -72.6929 C.3       10 UNK         0.0862 
     19 C         -71.4130   32.0514  -71.2708 C.2       10 UNK         0.5551 
     20 N         -70.1284   31.7576  -71.1094 N.am      10 UNK        -0.7319 
     21 O         -72.0790   32.4094  -70.3022 O.2       10 UNK        -0.5018 
     22 N         -71.2614   31.2402  -73.6940 N.am      10 UNK        -0.4509 
     23 C         -71.0238   29.9228  -73.6928 C.2       10 UNK         0.4899 
     24 O         -71.4258   29.1436  -72.8257 O.2       10 UNK        -0.4839 
     25 CA        -70.1381   29.4006  -74.8377 C.3       9 UNK         0.0222 
     26 CB        -68.6522   29.4931  -74.4524 C.3       9 UNK        -0.1966 
     27 N         -70.4604   28.0120  -75.1700 N.am      9 UNK        -0.4218 
     28 C         -71.5717   27.6278  -75.8098 C.2       9 UNK         0.5020 
     29 O         -72.3850   28.4170  -76.2968 O.2       9 UNK        -0.5274 
     30 CA        -71.7983   26.1090  -75.9059 C.3       8 UNK         0.0270 
     31 CB        -72.0072   25.4900  -74.5104 C.3       8 UNK        -0.1976 
     32 N         -72.9654   25.8086  -76.7369 N.am      8 UNK        -0.4313 
     33 C         -72.9247   25.6044  -78.0608 C.2       8 UNK         0.5041 
     34 O         -71.8780   25.5959  -78.7120 O.2       8 UNK        -0.5577 
     35 CA        -74.2514   25.3338  -78.7994 C.3       7 UNK         0.0284 
     36 CB        -74.3300   23.8594  -79.2295 C.3       7 UNK        -0.1958 
     37 N         -75.4460   25.6654  -78.0193 N.am      7 UNK        -0.4454 
     38 C         -75.8963   26.9104  -77.8083 C.2       7 UNK         0.5089 
     39 O         -75.4038   27.9127  -78.3261 O.2       7 UNK        -0.5125 
     40 CA        -77.0919   27.0710  -76.8488 C.3       6 UNK         0.0408 
     41 CB        -78.4048   27.0926  -77.6442 C.3       6 UNK        -0.1791 
     42 N         -77.1668   26.0444  -75.8005 N.am      6 UNK        -0.4762 
     43 C         -76.2125   25.8291  -74.8802 C.2       6 UNK         0.5007 
     44 O         -75.1505   26.4475  -74.8586 O.2       6 UNK        -0.5032 
     45 CA        -76.4340   24.6995  -73.8606 C.3       5 UNK         0.0783 
     46 C46       -77.1925   25.1754  -72.5929 C.3       11 UNK        -0.0857 
     47 S47       -76.0152   25.7253  -71.3067 S.3       11 UNK        -0.2512 
     48 C48       -76.7592   27.2651  -70.6744 C.3       11 UNK         0.0225 
     49 N         -77.0683   23.5440  -74.5006 N.am      5 UNK        -0.4615 
     50 C         -76.3928   22.4606  -74.9128 C.2       4 UNK         0.5053 
     51 O         -75.1827   22.3024  -74.7488 O.2       4 UNK        -0.5105 
     52 CA        -77.1840   21.3565  -75.6361 C.3       4 UNK         0.0263 
     53 CB        -77.6725   20.3019  -74.6300 C.3       4 UNK        -0.1981 
     54 N         -78.3238   21.8472  -76.4106 N.am      4 UNK        -0.4224 
     55 C         -78.2472   22.6919  -77.4482 C.2       3 UNK         0.4895 
     56 O         -77.1961   23.1627  -77.8818 O.2       3 UNK        -0.5091 
     57 CA        -79.5823   23.1203  -78.0787 C.3       3 UNK         0.0250 
     58 CB        -79.9971   22.1290  -79.1776 C.3       3 UNK        -0.1996 
     59 N         -80.6850   23.2797  -77.1203 N.am      3 UNK        -0.4254 
     60 C         -80.6663   24.0691  -76.0362 C.2       2 UNK         0.5004 
     61 O         -79.6659   24.6854  -75.6587 O.2       2 UNK        -0.5226 
     62 CA        -81.9855   24.1653  -75.2503 C.3       2 UNK         0.0269 
     63 CB        -82.0987   23.0410  -74.2004 C.3       2 UNK        -0.1926 
     64 N         -82.1749   25.5042  -74.6730 N.am      2 UNK        -0.4687 
     65 C         -81.5484   26.0617  -73.6256 C.2       1 UNK         0.5165 
     66 O         -80.8166   25.4587  -72.8358 O.2       1 UNK        -0.5079 
     67 H67       -81.5090   28.6532  -69.6259 H         1 UNK         0.0900 
     68 H68       -83.2482   28.9027  -69.4658 H         1 UNK         0.0900 
     69 H69       -82.5460   27.3224  -69.1086 H         1 UNK         0.0900 
     70 H70       -80.8499   28.3912  -71.7512 H         1 UNK         0.2959 
     71 H71       -82.6937   27.8665  -73.9034 H         1 UNK         0.1079 
     72 H72       -80.6819   27.9756  -75.3462 H         1 UNK         0.0837 
     73 H73       -79.6216   27.9804  -73.9809 H         1 UNK         0.0837 
     74 H74       -80.3291   30.5127  -71.9960 H         1 UNK         0.0685 
     75 H75       -79.5973   31.7433  -72.9835 H         1 UNK         0.0685 
     76 H76       -78.9742   28.7411  -71.1449 H         1 UNK         0.1434 
     77 H77       -74.9603   28.1999  -72.5356 H         1 UNK         0.1329 
     78 H78       -77.5222   31.0598  -74.4469 H         1 UNK         0.1335 
     79 H79       -74.1660   29.3301  -74.4633 H         1 UNK         0.0680 
     80 H80       -75.3588   29.9512  -75.5744 H         1 UNK         0.0680 
     81 H81       -73.6462   30.5407  -72.2826 H         1 UNK         0.1032 
     82 H82       -74.1055   32.1842  -71.9498 H         1 UNK         0.1032 
     83 H83       -72.0298   33.0181  -73.0373 H         1 UNK         0.0461 
     84 H84       -69.7195   31.8151  -70.1900 H         1 UNK         0.3453 
     85 H85       -69.5683   31.4724  -71.8960 H         1 UNK         0.3453 
     86 H86       -70.8713   31.8016  -74.4374 H         1 UNK         0.2984 
     87 H87       -70.3071   30.0160  -75.7243 H         1 UNK         0.0554 
     88 H88       -68.3649   30.5241  -74.2417 H         1 UNK         0.0847 
     89 H89       -68.0095   29.1403  -75.2592 H         1 UNK         0.0847 
     90 H90       -68.4275   28.9044  -73.5618 H         1 UNK         0.0847 
     91 H91       -69.8625   27.3033  -74.7704 H         1 UNK         0.3141 
     92 H92       -70.9089   25.6578  -76.3510 H         1 UNK         0.0743 
     93 H93       -71.0895   25.5241  -73.9227 H         1 UNK         0.0784 
     94 H94       -72.7709   26.0200  -73.9402 H         1 UNK         0.0784 
     95 H95       -72.3060   24.4435  -74.5779 H         1 UNK         0.0784 
     96 H96       -73.8658   25.9223  -76.2808 H         1 UNK         0.3213 
     97 H97       -74.2482   25.9494  -79.7016 H         1 UNK         0.0855 
     98 H98       -74.3547   23.1902  -78.3683 H         1 UNK         0.0814 
     99 H99       -73.4679   23.5799  -79.8367 H         1 UNK         0.0814 
    100 H100      -75.2211   23.6679  -79.8275 H         1 UNK         0.0814 
    101 H101      -75.9583   24.8881  -77.6157 H         1 UNK         0.3105 
    102 H102      -76.9837   28.0340  -76.3454 H         1 UNK         0.0547 
    103 H103      -79.2678   27.2144  -76.9924 H         1 UNK         0.0837 
    104 H104      -78.5418   26.1741  -78.2129 H         1 UNK         0.0837 
    105 H105      -78.4150   27.9196  -78.3553 H         1 UNK         0.0837 
    106 H106      -78.0281   25.5021  -75.7574 H         1 UNK         0.3020 
    107 H107      -75.4317   24.3989  -73.5455 H         1 UNK         0.1245 
    108 H108      -77.7670   24.3539  -72.1620 H         1 UNK         0.0781 
    109 H109      -77.9234   25.9542  -72.8207 H         1 UNK         0.0781 
    110 H110      -76.1185   27.6645  -69.8873 H         1 UNK         0.0836 
    111 H111      -77.7084   27.0133  -70.1986 H         1 UNK         0.0836 
    112 H112      -78.0540   23.6307  -74.7192 H         1 UNK         0.3022 
    113 H113      -76.4991   20.8716  -76.3351 H         1 UNK         0.0747 
    114 H114      -78.1512   19.4623  -75.1344 H         1 UNK         0.0793 
    115 H115      -76.8393   19.8976  -74.0531 H         1 UNK         0.0793 
    116 H116      -78.3869   20.7210  -73.9201 H         1 UNK         0.0793 
    117 H117      -79.2385   21.5290  -76.1261 H         1 UNK         0.3047 
    118 H118      -79.4209   24.0906  -78.5492 H         1 UNK         0.0822 
    119 H119      -80.8790   22.4773  -79.7156 H         1 UNK         0.0807 
    120 H120      -80.2191   21.1417  -78.7704 H         1 UNK         0.0807 
    121 H121      -79.2006   22.0063  -79.9133 H         1 UNK         0.0807 
    122 H122      -81.5416   22.7951  -77.3483 H         1 UNK         0.2946 
    123 H123      -82.8042   24.0386  -75.9611 H         1 UNK         0.1144 
    124 H124      -82.1547   22.0644  -74.6825 H         1 UNK         0.0793 
    125 H125      -82.9961   23.1533  -73.5919 H         1 UNK         0.0793 
    126 H126      -81.2388   23.0153  -73.5304 H         1 UNK         0.0793 
    127 H127      -82.7434   26.1167  -75.2418 H         1 UNK         0.2896 
@<TRIPOS>BOND
     1    1    2 1    
     2    1   67 1    
     3    1   68 1    
     4    1   69 1    
     5    2    3 2    
     6    2    4 am   BACKBONE|DICT|INTERRES
     7    4    5 1    
     8    4   70 1    
     9    5    6 1    
    10    5   65 1    
    11    5   71 1    
    12    6    7 1    
    13    6   72 1    
    14    6   73 1    
    15    7    8 1    
    16    8    9 1    
    17    8   74 1    
    18    8   75 1    
    19    9   10 ar   
    20    9   14 ar   
    21   10   11 ar   
    22   10   76 1    
    23   11   12 ar   
    24   11   48 1    
    25   12   13 ar   
    26   12   77 1    
    27   13   14 ar   
    28   13   15 1    
    29   14   78 1    
    30   15   16 1    
    31   15   79 1    
    32   15   80 1    
    33   16   17 1    
    34   17   18 1    
    35   17   81 1    
    36   17   82 1    
    37   18   19 1    
    38   18   22 1    
    39   18   83 1    
    40   19   20 am   BACKBONE|DICT|INTERRES
    41   19   21 2    
    42   20   84 1    
    43   20   85 1    
    44   22   23 am   BACKBONE|DICT|INTERRES
    45   22   86 1    
    46   23   24 2    
    47   23   25 1    
    48   25   26 1    
    49   25   27 1    
    50   25   87 1    
    51   26   88 1    
    52   26   89 1    
    53   26   90 1    
    54   27   28 am   BACKBONE|DICT|INTERRES
    55   27   91 1    
    56   28   29 2    
    57   28   30 1    
    58   30   31 1    
    59   30   32 1    
    60   30   92 1    
    61   31   93 1    
    62   31   94 1    
    63   31   95 1    
    64   32   33 am   BACKBONE|DICT|INTERRES
    65   32   96 1    
    66   33   34 2    
    67   33   35 1    
    68   35   36 1    
    69   35   37 1    
    70   35   97 1    
    71   36   98 1    
    72   36   99 1    
    73   36  100 1    
    74   37   38 am   BACKBONE|DICT|INTERRES
    75   37  101 1    
    76   38   39 2    
    77   38   40 1    
    78   40   41 1    
    79   40   42 1    
    80   40  102 1    
    81   41  103 1    
    82   41  104 1    
    83   41  105 1    
    84   42   43 am   BACKBONE|DICT|INTERRES
    85   42  106 1    
    86   43   44 2    
    87   43   45 1    
    88   45   46 1    
    89   45   49 1    
    90   45  107 1    
    91   46   47 1    
    92   46  108 1    
    93   46  109 1    
    94   47   48 1    
    95   48  110 1    
    96   48  111 1    
    97   49   50 am   BACKBONE|DICT|INTERRES
    98   49  112 1    
    99   50   51 2    
   100   50   52 1    
   101   52   53 1    
   102   52   54 1    
   103   52  113 1    
   104   53  114 1    
   105   53  115 1    
   106   53  116 1    
   107   54   55 am   BACKBONE|DICT|INTERRES
   108   54  117 1    
   109   55   56 2    
   110   55   57 1    
   111   57   58 1    
   112   57   59 1    
   113   57  118 1    
   114   58  119 1    
   115   58  120 1    
   116   58  121 1    
   117   59   60 am   BACKBONE|DICT|INTERRES
   118   59  122 1    
   119   60   61 2    
   120   60   62 1    
   121   62   63 1    
   122   62   64 1    
   123   62  123 1    
   124   63  124 1    
   125   63  125 1    
   126   63  126 1    
   127   64   65 am   BACKBONE|DICT|INTERRES
   128   64  127 1    
   129   65   66 2    
@<TRIPOS>SUBSTRUCTURE
     1 UNK         1 GROUP             0       ****    0 ROOT    
