@<TRIPOS>MOLECULE
3R135
127   129    1
SMALL
USER_CHARGES


@<TRIPOS>ATOM
      1 CA        -79.5182   24.0365  -70.9708 C.3       0 UNK        -0.1998 
      2 C         -80.1271   25.1378  -71.8245 C.2       0 UNK         0.4909 
      3 O         -79.5451   25.5262  -72.8387 O.2       0 UNK        -0.5240 
      4 N         -81.3103   25.6204  -71.4203 N.am      1 UNK        -0.4739 
      5 CA        -82.0812   26.6980  -72.0601 C.3       1 UNK         0.0864 
      6 C6        -81.3602   28.0795  -72.0021 C.3       11 UNK        -0.0881 
      7 S7        -80.7443   28.5061  -70.3363 S.3       11 UNK        -0.2682 
      8 C8        -79.3688   29.6395  -70.7207 C.3       11 UNK         0.0289 
      9 C9        -78.2621   28.9921  -71.5470 C.ar      11 UNK        -0.0687 
     10 C10       -77.4810   27.9639  -71.0088 C.ar      11 UNK        -0.0823 
     11 C11       -76.4381   27.3991  -71.7512 C.ar      11 UNK        -0.0830 
     12 C12       -76.1818   27.8735  -73.0412 C.ar      11 UNK        -0.1021 
     13 C13       -76.9613   28.8924  -73.5981 C.ar      11 UNK        -0.0753 
     14 C14       -78.0002   29.4460  -72.8440 C.ar      11 UNK        -0.0933 
     15 C15       -76.6964   29.3962  -75.0143 C.3       11 UNK         0.0166 
     16 S16       -74.9406   29.7550  -75.3385 S.3       11 UNK        -0.2615 
     17 C17       -74.6103   31.0544  -74.0990 C.3       11 UNK        -0.0865 
     18 CA        -73.3457   31.8851  -74.4363 C.3       10 UNK         0.0862 
     19 C         -73.1588   33.0582  -73.4312 C.2       10 UNK         0.5551 
     20 N         -72.0657   33.1268  -72.6815 N.am      10 UNK        -0.7319 
     21 O         -74.0209   33.9277  -73.3371 O.2       10 UNK        -0.5018 
     22 N         -72.1676   31.0189  -74.5914 N.am      10 UNK        -0.4509 
     23 C         -71.0818   31.2968  -75.3165 C.2       10 UNK         0.4899 
     24 O         -70.9193   32.3549  -75.9247 O.2       10 UNK        -0.4839 
     25 CA        -69.9941   30.2099  -75.4057 C.3       9 UNK         0.0222 
     26 CB        -68.9442   30.3875  -74.2920 C.3       9 UNK        -0.1966 
     27 N         -70.4976   28.8269  -75.4607 N.am      9 UNK        -0.4218 
     28 C         -71.1161   28.1042  -74.5171 C.2       9 UNK         0.5020 
     29 O         -71.4160   28.5404  -73.4043 O.2       9 UNK        -0.5274 
     30 CA        -71.4978   26.6632  -74.9084 C.3       8 UNK         0.0270 
     31 CB        -71.8316   25.7947  -73.6822 C.3       8 UNK        -0.1976 
     32 N         -72.6317   26.6278  -75.8344 N.am      8 UNK        -0.4313 
     33 C         -72.5992   26.9929  -77.1221 C.2       8 UNK         0.5041 
     34 O         -71.5808   27.3983  -77.6890 O.2       8 UNK        -0.5577 
     35 CA        -73.9290   26.8701  -77.8924 C.3       7 UNK         0.0284 
     36 CB        -73.7876   27.2126  -79.3908 C.3       7 UNK        -0.1958 
     37 N         -74.5763   25.5612  -77.7201 N.am      7 UNK        -0.4454 
     38 C         -74.0750   24.3547  -78.0311 C.2       7 UNK         0.5089 
     39 O         -72.9454   24.1638  -78.4843 O.2       7 UNK        -0.5125 
     40 CA        -75.0276   23.1678  -77.7999 C.3       6 UNK         0.0408 
     41 CB        -74.3944   21.7940  -78.1101 C.3       6 UNK        -0.1791 
     42 N         -75.6357   23.2023  -76.4646 N.am      6 UNK        -0.4762 
     43 C         -75.0340   22.9990  -75.2793 C.2       6 UNK         0.5007 
     44 O         -73.8422   22.7129  -75.1647 O.2       6 UNK        -0.5032 
     45 CA        -75.8786   23.1751  -73.9909 C.3       5 UNK         0.0783 
     46 C46       -75.3310   24.3845  -73.1937 C.3       11 UNK        -0.0857 
     47 S47       -76.1350   24.6328  -71.5796 S.3       11 UNK        -0.2512 
     48 C48       -75.5659   26.3080  -71.1418 C.3       11 UNK         0.0225 
     49 N         -77.3181   23.3028  -74.2555 N.am      5 UNK        -0.4615 
     50 C         -78.1122   22.3366  -74.7401 C.2       4 UNK         0.5053 
     51 O         -77.7610   21.1626  -74.8538 O.2       4 UNK        -0.5105 
     52 CA        -79.5054   22.7573  -75.2508 C.3       4 UNK         0.0263 
     53 CB        -80.6211   22.2551  -74.3216 C.3       4 UNK        -0.1981 
     54 N         -79.6413   24.2049  -75.4545 N.am      4 UNK        -0.4224 
     55 C         -78.9905   24.9094  -76.3927 C.2       3 UNK         0.4895 
     56 O         -78.2246   24.3964  -77.2107 O.2       3 UNK        -0.5091 
     57 CA        -79.1651   26.4396  -76.3687 C.3       3 UNK         0.0250 
     58 CB        -78.7552   27.1142  -77.6954 C.3       3 UNK        -0.1996 
     59 N         -80.4993   26.8766  -75.9463 N.am      3 UNK        -0.4254 
     60 C         -81.6803   26.6183  -76.5322 C.2       2 UNK         0.5004 
     61 O         -81.8082   25.9767  -77.5760 O.2       2 UNK        -0.5226 
     62 CA        -82.9275   27.1858  -75.8175 C.3       2 UNK         0.0269 
     63 CB        -84.2225   26.4181  -76.1619 C.3       2 UNK        -0.1926 
     64 N         -82.7413   27.3059  -74.3615 N.am      2 UNK        -0.4687 
     65 C         -82.5175   26.3041  -73.4945 C.2       1 UNK         0.5165 
     66 O         -82.6135   25.1126  -73.7996 O.2       1 UNK        -0.5079 
     67 H67       -78.9384   23.3506  -71.5876 H         1 UNK         0.0900 
     68 H68       -78.8521   24.4704  -70.2259 H         1 UNK         0.0900 
     69 H69       -80.2841   23.4592  -70.4537 H         1 UNK         0.0900 
     70 H70       -81.7390   25.2269  -70.5949 H         1 UNK         0.2959 
     71 H71       -83.0060   26.7842  -71.4878 H         1 UNK         0.1079 
     72 H72       -82.0306   28.8837  -72.3089 H         1 UNK         0.0837 
     73 H73       -80.5238   28.0881  -72.7017 H         1 UNK         0.0837 
     74 H74       -78.9430   30.0016  -69.7840 H         1 UNK         0.0685 
     75 H75       -79.7705   30.5168  -71.2300 H         1 UNK         0.0685 
     76 H76       -77.6837   27.6100  -70.0073 H         1 UNK         0.1434 
     77 H77       -75.3614   27.4654  -73.6118 H         1 UNK         0.1329 
     78 H78       -78.6032   30.2389  -73.2648 H         1 UNK         0.1335 
     79 H79       -77.2801   30.2940  -75.2239 H         1 UNK         0.0680 
     80 H80       -77.0279   28.6410  -75.7256 H         1 UNK         0.0680 
     81 H81       -74.5099   30.5831  -73.1193 H         1 UNK         0.1032 
     82 H82       -75.4859   31.7036  -74.0380 H         1 UNK         0.1032 
     83 H83       -73.5254   32.3586  -75.4032 H         1 UNK         0.0461 
     84 H84       -71.9526   33.8933  -72.0370 H         1 UNK         0.3453 
     85 H85       -71.3553   32.4174  -72.7562 H         1 UNK         0.3453 
     86 H86       -72.1835   30.1343  -74.0921 H         1 UNK         0.2984 
     87 H87       -69.4849   30.3653  -76.3577 H         1 UNK         0.0554 
     88 H88       -68.5062   31.3860  -74.3266 H         1 UNK         0.0847 
     89 H89       -68.1286   29.6729  -74.3988 H         1 UNK         0.0847 
     90 H90       -69.3742   30.2589  -73.2988 H         1 UNK         0.0847 
     91 H91       -70.4531   28.3898  -76.3783 H         1 UNK         0.3141 
     92 H92       -70.6337   26.2161  -75.4047 H         1 UNK         0.0743 
     93 H93       -70.9990   25.7794  -72.9777 H         1 UNK         0.0784 
     94 H94       -72.0288   24.7617  -73.9702 H         1 UNK         0.0784 
     95 H95       -72.7031   26.1712  -73.1459 H         1 UNK         0.0784 
     96 H96       -73.5118   26.3169  -75.4542 H         1 UNK         0.3213 
     97 H97       -74.6028   27.6083  -77.4553 H         1 UNK         0.0855 
     98 H98       -73.0990   26.5359  -79.8979 H         1 UNK         0.0814 
     99 H99       -73.4047   28.2251  -79.5246 H         1 UNK         0.0814 
    100 H100      -74.7481   27.1602  -79.9028 H         1 UNK         0.0814 
    101 H101      -75.5191   25.5823  -77.3574 H         1 UNK         0.3105 
    102 H102      -75.8508   23.3035  -78.5030 H         1 UNK         0.0547 
    103 H103      -75.1017   20.9829  -77.9381 H         1 UNK         0.0837 
    104 H104      -73.5089   21.6027  -77.5040 H         1 UNK         0.0837 
    105 H105      -74.0852   21.7381  -79.1544 H         1 UNK         0.0837 
    106 H106      -76.6183   23.4600  -76.4624 H         1 UNK         0.3020 
    107 H107      -75.7297   22.2723  -73.3943 H         1 UNK         0.1245 
    108 H108      -75.4341   25.2897  -73.7890 H         1 UNK         0.0781 
    109 H109      -74.2650   24.2599  -72.9966 H         1 UNK         0.0781 
    110 H110      -74.5266   26.4400  -71.4459 H         1 UNK         0.0836 
    111 H111      -75.5707   26.3990  -70.0546 H         1 UNK         0.0836 
    112 H112      -77.7172   24.2213  -74.1151 H         1 UNK         0.3022 
    113 H113      -79.6420   22.2773  -76.2222 H         1 UNK         0.0747 
    114 H114      -80.5714   21.1722  -74.2010 H         1 UNK         0.0793 
    115 H115      -80.5549   22.6959  -73.3291 H         1 UNK         0.0793 
    116 H116      -81.6064   22.4915  -74.7242 H         1 UNK         0.0793 
    117 H117      -80.1807   24.7108  -74.7601 H         1 UNK         0.3047 
    118 H118      -78.4833   26.7915  -75.5937 H         1 UNK         0.0822 
    119 H119      -78.8669   28.1970  -77.6414 H         1 UNK         0.0807 
    120 H120      -79.3563   26.7562  -78.5317 H         1 UNK         0.0807 
    121 H121      -77.7113   26.9102  -77.9358 H         1 UNK         0.0807 
    122 H122      -80.5230   27.3907  -75.0775 H         1 UNK         0.2946 
    123 H123      -83.0443   28.2029  -76.1957 H         1 UNK         0.1144 
    124 H124      -85.0816   26.8303  -75.6327 H         1 UNK         0.0793 
    125 H125      -84.1489   25.3596  -75.9117 H         1 UNK         0.0793 
    126 H126      -84.4401   26.4810  -77.2287 H         1 UNK         0.0793 
    127 H127      -82.6786   28.2534  -74.0151 H         1 UNK         0.2896 
@<TRIPOS>BOND
     1    1    2 1    
     2    1   67 1    
     3    1   68 1    
     4    1   69 1    
     5    2    3 2    
     6    2    4 am   BACKBONE|DICT|INTERRES
     7    4    5 1    
     8    4   70 1    
     9    5    6 1    
    10    5   65 1    
    11    5   71 1    
    12    6    7 1    
    13    6   72 1    
    14    6   73 1    
    15    7    8 1    
    16    8    9 1    
    17    8   74 1    
    18    8   75 1    
    19    9   10 ar   
    20    9   14 ar   
    21   10   11 ar   
    22   10   76 1    
    23   11   12 ar   
    24   11   48 1    
    25   12   13 ar   
    26   12   77 1    
    27   13   14 ar   
    28   13   15 1    
    29   14   78 1    
    30   15   16 1    
    31   15   79 1    
    32   15   80 1    
    33   16   17 1    
    34   17   18 1    
    35   17   81 1    
    36   17   82 1    
    37   18   19 1    
    38   18   22 1    
    39   18   83 1    
    40   19   20 am   BACKBONE|DICT|INTERRES
    41   19   21 2    
    42   20   84 1    
    43   20   85 1    
    44   22   23 am   BACKBONE|DICT|INTERRES
    45   22   86 1    
    46   23   24 2    
    47   23   25 1    
    48   25   26 1    
    49   25   27 1    
    50   25   87 1    
    51   26   88 1    
    52   26   89 1    
    53   26   90 1    
    54   27   28 am   BACKBONE|DICT|INTERRES
    55   27   91 1    
    56   28   29 2    
    57   28   30 1    
    58   30   31 1    
    59   30   32 1    
    60   30   92 1    
    61   31   93 1    
    62   31   94 1    
    63   31   95 1    
    64   32   33 am   BACKBONE|DICT|INTERRES
    65   32   96 1    
    66   33   34 2    
    67   33   35 1    
    68   35   36 1    
    69   35   37 1    
    70   35   97 1    
    71   36   98 1    
    72   36   99 1    
    73   36  100 1    
    74   37   38 am   BACKBONE|DICT|INTERRES
    75   37  101 1    
    76   38   39 2    
    77   38   40 1    
    78   40   41 1    
    79   40   42 1    
    80   40  102 1    
    81   41  103 1    
    82   41  104 1    
    83   41  105 1    
    84   42   43 am   BACKBONE|DICT|INTERRES
    85   42  106 1    
    86   43   44 2    
    87   43   45 1    
    88   45   46 1    
    89   45   49 1    
    90   45  107 1    
    91   46   47 1    
    92   46  108 1    
    93   46  109 1    
    94   47   48 1    
    95   48  110 1    
    96   48  111 1    
    97   49   50 am   BACKBONE|DICT|INTERRES
    98   49  112 1    
    99   50   51 2    
   100   50   52 1    
   101   52   53 1    
   102   52   54 1    
   103   52  113 1    
   104   53  114 1    
   105   53  115 1    
   106   53  116 1    
   107   54   55 am   BACKBONE|DICT|INTERRES
   108   54  117 1    
   109   55   56 2    
   110   55   57 1    
   111   57   58 1    
   112   57   59 1    
   113   57  118 1    
   114   58  119 1    
   115   58  120 1    
   116   58  121 1    
   117   59   60 am   BACKBONE|DICT|INTERRES
   118   59  122 1    
   119   60   61 2    
   120   60   62 1    
   121   62   63 1    
   122   62   64 1    
   123   62  123 1    
   124   63  124 1    
   125   63  125 1    
   126   63  126 1    
   127   64   65 am   BACKBONE|DICT|INTERRES
   128   64  127 1    
   129   65   66 2    
@<TRIPOS>SUBSTRUCTURE
     1 UNK         1 GROUP             0       ****    0 ROOT    
