@<TRIPOS>MOLECULE
3R135
127   129    1
SMALL
USER_CHARGES


@<TRIPOS>ATOM
      1 CA        -83.8953   28.2975  -72.3340 C.3       0 UNK        -0.1998 
      2 C         -82.5301   27.8871  -72.8644 C.2       0 UNK         0.4909 
      3 O         -81.7921   27.1932  -72.1655 O.2       0 UNK        -0.5240 
      4 N         -82.1966   28.3187  -74.0905 N.am      1 UNK        -0.4739 
      5 CA        -80.9346   28.0546  -74.8047 C.3       1 UNK         0.0864 
      6 C6        -79.6940   28.7237  -74.1538 C.3       11 UNK        -0.0881 
      7 S7        -79.8840   30.5167  -73.8398 S.3       11 UNK        -0.2682 
      8 C8        -80.0618   30.5999  -72.0223 C.3       11 UNK         0.0289 
      9 C9        -78.8197   30.0929  -71.3036 C.ar      11 UNK        -0.0687 
     10 C10       -78.7794   28.7871  -70.8085 C.ar      11 UNK        -0.0823 
     11 C11       -77.6048   28.2716  -70.2565 C.ar      11 UNK        -0.0830 
     12 C12       -76.4807   29.0946  -70.1379 C.ar      11 UNK        -0.1021 
     13 C13       -76.5196   30.4142  -70.6007 C.ar      11 UNK        -0.0753 
     14 C14       -77.6939   30.9100  -71.1763 C.ar      11 UNK        -0.0933 
     15 C15       -75.2814   31.2919  -70.5280 C.3       11 UNK         0.0166 
     16 S16       -74.5660   31.5264  -72.1870 S.3       11 UNK        -0.2615 
     17 C17       -72.7925   31.1935  -71.9024 C.3       11 UNK        -0.0865 
     18 CA        -72.3198   29.7951  -72.3984 C.3       10 UNK         0.0862 
     19 C         -72.8144   28.6114  -71.5233 C.2       10 UNK         0.5551 
     20 N         -72.5279   28.6298  -70.2283 N.am      10 UNK        -0.7319 
     21 O         -73.4341   27.6656  -72.0055 O.2       10 UNK        -0.5018 
     22 N         -72.6089   29.5528  -73.8156 N.am      10 UNK        -0.4509 
     23 C         -72.0201   30.1500  -74.8554 C.2       10 UNK         0.4899 
     24 O         -71.1843   31.0499  -74.7523 O.2       10 UNK        -0.4839 
     25 CA        -72.4227   29.6131  -76.2416 C.3       9 UNK         0.0222 
     26 CB        -71.6203   30.2383  -77.4024 C.3       9 UNK        -0.1966 
     27 N         -72.3670   28.1477  -76.2833 N.am      9 UNK        -0.4218 
     28 C         -71.2926   27.3649  -76.0942 C.2       9 UNK         0.5020 
     29 O         -70.1447   27.7843  -75.9396 O.2       9 UNK        -0.5274 
     30 CA        -71.5376   25.8468  -76.0466 C.3       8 UNK         0.0270 
     31 CB        -71.7203   25.3883  -74.5905 C.3       8 UNK        -0.1976 
     32 N         -72.6895   25.4146  -76.8431 N.am      8 UNK        -0.4313 
     33 C         -72.7381   25.4427  -78.1826 C.2       8 UNK         0.5041 
     34 O         -71.7971   25.7938  -78.8961 O.2       8 UNK        -0.5577 
     35 CA        -74.0597   25.0160  -78.8407 C.3       7 UNK         0.0284 
     36 CB        -74.1491   23.4840  -78.9307 C.3       7 UNK        -0.1958 
     37 N         -75.2366   25.5447  -78.1458 N.am      7 UNK        -0.4454 
     38 C         -75.5815   26.8404  -78.1148 C.2       7 UNK         0.5089 
     39 O         -74.9626   27.7288  -78.7006 O.2       7 UNK        -0.5125 
     40 CA        -76.8091   27.2179  -77.2658 C.3       6 UNK         0.0408 
     41 CB        -78.1112   26.8948  -78.0142 C.3       6 UNK        -0.1791 
     42 N         -76.8153   26.5691  -75.9530 N.am      6 UNK        -0.4762 
     43 C         -75.8863   26.7615  -75.0047 C.2       6 UNK         0.5007 
     44 O         -74.9553   27.5607  -75.1145 O.2       6 UNK        -0.5032 
     45 CA        -75.9712   25.8746  -73.7471 C.3       5 UNK         0.0783 
     46 C46       -76.8471   26.5202  -72.6501 C.3       11 UNK        -0.0857 
     47 S47       -76.4857   25.8173  -71.0014 S.3       11 UNK        -0.2512 
     48 C48       -77.5369   26.8000  -69.8716 C.3       11 UNK         0.0225 
     49 N         -76.3888   24.5039  -74.0659 N.am      5 UNK        -0.4615 
     50 C         -75.6399   23.6485  -74.7734 C.2       4 UNK         0.5053 
     51 O         -74.5479   23.9380  -75.2616 O.2       4 UNK        -0.5105 
     52 CA        -76.2029   22.2356  -74.9847 C.3       4 UNK         0.0263 
     53 CB        -76.2599   21.4609  -73.6571 C.3       4 UNK        -0.1981 
     54 N         -77.5140   22.1923  -75.6392 N.am      4 UNK        -0.4224 
     55 C         -77.7973   22.7021  -76.8481 C.2       3 UNK         0.4895 
     56 O         -77.0321   23.4148  -77.4946 O.2       3 UNK        -0.5091 
     57 CA        -79.1662   22.3441  -77.4407 C.3       3 UNK         0.0250 
     58 CB        -79.3097   20.8261  -77.6530 C.3       3 UNK        -0.1996 
     59 N         -80.2345   22.8280  -76.5700 N.am      3 UNK        -0.4254 
     60 C         -80.9181   23.9608  -76.7693 C.2       2 UNK         0.5004 
     61 O         -80.8138   24.6574  -77.7815 O.2       2 UNK        -0.5226 
     62 CA        -81.8926   24.3994  -75.6565 C.3       2 UNK         0.0269 
     63 CB        -81.7380   23.6174  -74.3304 C.3       2 UNK        -0.1926 
     64 N         -81.8125   25.8420  -75.3982 N.am      2 UNK        -0.4687 
     65 C         -80.7184   26.5418  -75.0543 C.2       1 UNK         0.5165 
     66 O         -79.5981   26.0415  -74.9180 O.2       1 UNK        -0.5079 
     67 H67       -84.4956   27.4134  -72.1208 H         1 UNK         0.0900 
     68 H68       -83.7825   28.8640  -71.4100 H         1 UNK         0.0900 
     69 H69       -84.4419   28.9157  -73.0458 H         1 UNK         0.0900 
     70 H70       -82.8562   28.8937  -74.5965 H         1 UNK         0.2959 
     71 H71       -81.0519   28.4963  -75.7957 H         1 UNK         0.1079 
     72 H72       -79.4427   28.2038  -73.2343 H         1 UNK         0.0837 
     73 H73       -78.8232   28.6036  -74.8013 H         1 UNK         0.0837 
     74 H74       -80.2508   31.6351  -71.7349 H         1 UNK         0.0685 
     75 H75       -80.9415   30.0352  -71.7134 H         1 UNK         0.0685 
     76 H76       -79.6464   28.1489  -70.9146 H         1 UNK         0.1434 
     77 H77       -75.5642   28.6911  -69.7294 H         1 UNK         0.1329 
     78 H78       -77.7159   31.9188  -71.5656 H         1 UNK         0.1335 
     79 H79       -75.5424   32.2648  -70.1092 H         1 UNK         0.0680 
     80 H80       -74.5497   30.8513  -69.8499 H         1 UNK         0.0680 
     81 H81       -72.5415   31.3453  -70.8521 H         1 UNK         0.1032 
     82 H82       -72.2331   31.9666  -72.4306 H         1 UNK         0.1032 
     83 H83       -71.2323   29.7673  -72.3074 H         1 UNK         0.0461 
     84 H84       -72.8303   27.8576  -69.6562 H         1 UNK         0.3453 
     85 H85       -71.9908   29.3762  -69.8171 H         1 UNK         0.3453 
     86 H86       -73.2785   28.8086  -73.9807 H         1 UNK         0.2984 
     87 H87       -73.4709   29.8806  -76.3839 H         1 UNK         0.0554 
     88 H88       -71.9440   29.8414  -78.3646 H         1 UNK         0.0847 
     89 H89       -70.5502   30.0532  -77.3055 H         1 UNK         0.0847 
     90 H90       -71.7603   31.3194  -77.4332 H         1 UNK         0.0847 
     91 H91       -73.2730   27.6919  -76.3139 H         1 UNK         0.3141 
     92 H92       -70.6488   25.3566  -76.4494 H         1 UNK         0.0743 
     93 H93       -70.8600   25.6680  -73.9809 H         1 UNK         0.0784 
     94 H94       -72.6020   25.8403  -74.1346 H         1 UNK         0.0784 
     95 H95       -71.8264   24.3054  -74.5246 H         1 UNK         0.0784 
     96 H96       -73.4828   25.0310  -76.3312 H         1 UNK         0.3213 
     97 H97       -74.0654   25.4145  -79.8575 H         1 UNK         0.0855 
     98 H98       -74.1907   23.0230  -77.9429 H         1 UNK         0.0814 
     99 H99       -73.2830   23.0709  -79.4493 H         1 UNK         0.0814 
    100 H100      -75.0363   23.1716  -79.4816 H         1 UNK         0.0814 
    101 H101      -75.8354   24.8640  -77.6822 H         1 UNK         0.3105 
    102 H102      -76.7763   28.2965  -77.0985 H         1 UNK         0.0547 
    103 H103      -78.1205   27.3584  -79.0014 H         1 UNK         0.0837 
    104 H104      -78.2419   25.8215  -78.1570 H         1 UNK         0.0837 
    105 H105      -78.9820   27.2671  -77.4761 H         1 UNK         0.0837 
    106 H106      -77.5786   25.9314  -75.7575 H         1 UNK         0.3020 
    107 H107      -74.9504   25.8199  -73.3607 H         1 UNK         0.1245 
    108 H108      -77.9087   26.4033  -72.8696 H         1 UNK         0.0781 
    109 H109      -76.6504   27.5932  -72.6103 H         1 UNK         0.0781 
    110 H110      -77.1510   26.7071  -68.8556 H         1 UNK         0.0836 
    111 H111      -78.5358   26.3609  -69.8585 H         1 UNK         0.0836 
    112 H112      -77.2850   24.2057  -73.7107 H         1 UNK         0.3022 
    113 H113      -75.5050   21.7128  -75.6423 H         1 UNK         0.0747 
    114 H114      -76.5120   20.4129  -73.8203 H         1 UNK         0.0793 
    115 H115      -75.2936   21.4828  -73.1508 H         1 UNK         0.0793 
    116 H116      -76.9965   21.8799  -72.9705 H         1 UNK         0.0793 
    117 H117      -78.2141   21.6272  -75.1837 H         1 UNK         0.3047 
    118 H118      -79.2319   22.8191  -78.4223 H         1 UNK         0.0822 
    119 H119      -80.2418   20.5899  -78.1667 H         1 UNK         0.0807 
    120 H120      -79.3000   20.2712  -76.7144 H         1 UNK         0.0807 
    121 H121      -78.4963   20.4405  -78.2695 H         1 UNK         0.0807 
    122 H122      -80.3926   22.3254  -75.7092 H         1 UNK         0.2946 
    123 H123      -82.8947   24.2068  -76.0431 H         1 UNK         0.1144 
    124 H124      -82.4343   23.9879  -73.5776 H         1 UNK         0.0793 
    125 H125      -80.7332   23.7090  -73.9155 H         1 UNK         0.0793 
    126 H126      -81.9546   22.5567  -74.4620 H         1 UNK         0.0793 
    127 H127      -82.6780   26.3528  -75.5007 H         1 UNK         0.2896 
@<TRIPOS>BOND
     1    1    2 1    
     2    1   67 1    
     3    1   68 1    
     4    1   69 1    
     5    2    3 2    
     6    2    4 am   BACKBONE|DICT|INTERRES
     7    4    5 1    
     8    4   70 1    
     9    5    6 1    
    10    5   65 1    
    11    5   71 1    
    12    6    7 1    
    13    6   72 1    
    14    6   73 1    
    15    7    8 1    
    16    8    9 1    
    17    8   74 1    
    18    8   75 1    
    19    9   10 ar   
    20    9   14 ar   
    21   10   11 ar   
    22   10   76 1    
    23   11   12 ar   
    24   11   48 1    
    25   12   13 ar   
    26   12   77 1    
    27   13   14 ar   
    28   13   15 1    
    29   14   78 1    
    30   15   16 1    
    31   15   79 1    
    32   15   80 1    
    33   16   17 1    
    34   17   18 1    
    35   17   81 1    
    36   17   82 1    
    37   18   19 1    
    38   18   22 1    
    39   18   83 1    
    40   19   20 am   BACKBONE|DICT|INTERRES
    41   19   21 2    
    42   20   84 1    
    43   20   85 1    
    44   22   23 am   BACKBONE|DICT|INTERRES
    45   22   86 1    
    46   23   24 2    
    47   23   25 1    
    48   25   26 1    
    49   25   27 1    
    50   25   87 1    
    51   26   88 1    
    52   26   89 1    
    53   26   90 1    
    54   27   28 am   BACKBONE|DICT|INTERRES
    55   27   91 1    
    56   28   29 2    
    57   28   30 1    
    58   30   31 1    
    59   30   32 1    
    60   30   92 1    
    61   31   93 1    
    62   31   94 1    
    63   31   95 1    
    64   32   33 am   BACKBONE|DICT|INTERRES
    65   32   96 1    
    66   33   34 2    
    67   33   35 1    
    68   35   36 1    
    69   35   37 1    
    70   35   97 1    
    71   36   98 1    
    72   36   99 1    
    73   36  100 1    
    74   37   38 am   BACKBONE|DICT|INTERRES
    75   37  101 1    
    76   38   39 2    
    77   38   40 1    
    78   40   41 1    
    79   40   42 1    
    80   40  102 1    
    81   41  103 1    
    82   41  104 1    
    83   41  105 1    
    84   42   43 am   BACKBONE|DICT|INTERRES
    85   42  106 1    
    86   43   44 2    
    87   43   45 1    
    88   45   46 1    
    89   45   49 1    
    90   45  107 1    
    91   46   47 1    
    92   46  108 1    
    93   46  109 1    
    94   47   48 1    
    95   48  110 1    
    96   48  111 1    
    97   49   50 am   BACKBONE|DICT|INTERRES
    98   49  112 1    
    99   50   51 2    
   100   50   52 1    
   101   52   53 1    
   102   52   54 1    
   103   52  113 1    
   104   53  114 1    
   105   53  115 1    
   106   53  116 1    
   107   54   55 am   BACKBONE|DICT|INTERRES
   108   54  117 1    
   109   55   56 2    
   110   55   57 1    
   111   57   58 1    
   112   57   59 1    
   113   57  118 1    
   114   58  119 1    
   115   58  120 1    
   116   58  121 1    
   117   59   60 am   BACKBONE|DICT|INTERRES
   118   59  122 1    
   119   60   61 2    
   120   60   62 1    
   121   62   63 1    
   122   62   64 1    
   123   62  123 1    
   124   63  124 1    
   125   63  125 1    
   126   63  126 1    
   127   64   65 am   BACKBONE|DICT|INTERRES
   128   64  127 1    
   129   65   66 2    
@<TRIPOS>SUBSTRUCTURE
     1 UNK         1 GROUP             0       ****    0 ROOT    
