@<TRIPOS>MOLECULE
3R135
127   129    1
SMALL
USER_CHARGES


@<TRIPOS>ATOM
      1 CA        -83.0478   31.4349  -76.8294 C.3       0 UNK        -0.1998 
      2 C         -82.4462   30.0642  -76.5573 C.2       0 UNK         0.4909 
      3 O         -82.8280   29.0876  -77.2037 O.2       0 UNK        -0.5240 
      4 N         -81.5014   29.9854  -75.6126 N.am      1 UNK        -0.4739 
      5 CA        -80.8669   28.7437  -75.1608 C.3       1 UNK         0.0864 
      6 C6        -79.5346   29.0138  -74.4138 C.3       11 UNK        -0.0881 
      7 S7        -79.6258   30.2681  -73.0849 S.3       11 UNK        -0.2682 
      8 C8        -79.6809   29.2423  -71.5769 C.3       11 UNK         0.0289 
      9 C9        -78.4773   28.3171  -71.4344 C.ar      11 UNK        -0.0687 
     10 C10       -78.6703   26.9482  -71.2290 C.ar      11 UNK        -0.0823 
     11 C11       -77.5795   26.0841  -71.0966 C.ar      11 UNK        -0.0830 
     12 C12       -76.2830   26.5994  -71.1855 C.ar      11 UNK        -0.1021 
     13 C13       -76.0753   27.9677  -71.3872 C.ar      11 UNK        -0.0753 
     14 C14       -77.1753   28.8229  -71.4963 C.ar      11 UNK        -0.0933 
     15 C15       -74.6607   28.5168  -71.4804 C.3       11 UNK         0.0166 
     16 S16       -74.0765   28.5354  -73.2010 S.3       11 UNK        -0.2615 
     17 C17       -74.6515   30.1687  -73.7961 C.3       11 UNK        -0.0865 
     18 CA        -73.4816   31.1495  -74.0707 C.3       10 UNK         0.0862 
     19 C         -72.8066   31.6083  -72.7417 C.2       10 UNK         0.5551 
     20 N         -71.6339   31.0958  -72.3833 N.am      10 UNK        -0.7319 
     21 O         -73.3597   32.4443  -72.0316 O.2       10 UNK        -0.5018 
     22 N         -72.5624   30.5865  -75.0682 N.am      10 UNK        -0.4509 
     23 C         -71.5174   31.2143  -75.6193 C.2       10 UNK         0.4899 
     24 O         -71.3279   32.4280  -75.5252 O.2       10 UNK        -0.4839 
     25 CA        -70.5048   30.3434  -76.3962 C.3       9 UNK         0.0222 
     26 CB        -69.0522   30.8039  -76.1543 C.3       9 UNK        -0.1966 
     27 N         -70.6234   28.8956  -76.1568 N.am      9 UNK        -0.4218 
     28 C         -70.5384   28.2249  -74.9972 C.2       9 UNK         0.5020 
     29 O         -70.3322   28.7732  -73.9118 O.2       9 UNK        -0.5274 
     30 CA        -70.7514   26.6938  -75.0640 C.3       8 UNK         0.0270 
     31 CB        -70.9252   26.0626  -73.6698 C.3       8 UNK        -0.1976 
     32 N         -71.8857   26.2904  -75.9092 N.am      8 UNK        -0.4313 
     33 C         -71.9031   26.3090  -77.2516 C.2       8 UNK         0.5041 
     34 O         -70.9492   26.7004  -77.9260 O.2       8 UNK        -0.5577 
     35 CA        -73.1780   25.8492  -77.9832 C.3       7 UNK         0.0284 
     36 CB        -72.9618   24.4631  -78.6108 C.3       7 UNK        -0.1958 
     37 N         -74.3749   25.8149  -77.1422 N.am      7 UNK        -0.4454 
     38 C         -74.9822   26.8919  -76.6208 C.2       7 UNK         0.5089 
     39 O         -74.6190   28.0482  -76.8385 O.2       7 UNK        -0.5125 
     40 CA        -76.1959   26.6449  -75.7018 C.3       6 UNK         0.0408 
     41 CB        -77.4926   26.8994  -76.4851 C.3       6 UNK        -0.1791 
     42 N         -76.2578   25.3016  -75.1154 N.am      6 UNK        -0.4762 
     43 C         -75.3091   24.7103  -74.3683 C.2       6 UNK         0.5007 
     44 O         -74.2435   25.2451  -74.0621 O.2       6 UNK        -0.5032 
     45 CA        -75.5454   23.2373  -73.9659 C.3       5 UNK         0.0783 
     46 C46       -76.0938   23.1208  -72.5216 C.3       11 UNK        -0.0857 
     47 S47       -77.8492   23.6138  -72.3443 S.3       11 UNK        -0.2512 
     48 C48       -77.8117   24.6055  -70.8189 C.3       11 UNK         0.0225 
     49 N         -76.3777   22.4930  -74.9180 N.am      5 UNK        -0.4615 
     50 C         -76.1638   22.3634  -76.2344 C.2       4 UNK         0.5053 
     51 O         -75.1446   22.7595  -76.7996 O.2       4 UNK        -0.5105 
     52 CA        -77.2978   21.7424  -77.0756 C.3       4 UNK         0.0263 
     53 CB        -76.9376   20.3022  -77.4741 C.3       4 UNK        -0.1981 
     54 N         -78.6254   21.7478  -76.4407 N.am      4 UNK        -0.4224 
     55 C         -79.2827   22.8285  -75.9932 C.2       3 UNK         0.4895 
     56 O         -78.8286   23.9754  -76.0476 O.2       3 UNK        -0.5091 
     57 CA        -80.6528   22.5846  -75.3416 C.3       3 UNK         0.0250 
     58 CB        -80.6329   21.4187  -74.3298 C.3       3 UNK        -0.1996 
     59 N         -81.0632   23.8134  -74.6693 N.am      3 UNK        -0.4254 
     60 C         -82.3187   24.1897  -74.4036 C.2       2 UNK         0.5004 
     61 O         -83.3146   23.5222  -74.6839 O.2       2 UNK        -0.5226 
     62 CA        -82.4854   25.5536  -73.7250 C.3       2 UNK         0.0269 
     63 CB        -82.1804   25.4498  -72.2184 C.3       2 UNK        -0.1926 
     64 N         -81.6291   26.5531  -74.3706 N.am      2 UNK        -0.4687 
     65 C         -81.8367   27.8748  -74.3295 C.2       1 UNK         0.5165 
     66 O         -82.7351   28.4047  -73.6696 O.2       1 UNK        -0.5079 
     67 H67       -82.6082   32.2055  -76.1962 H         1 UNK         0.0900 
     68 H68       -84.1215   31.4162  -76.6448 H         1 UNK         0.0900 
     69 H69       -82.8849   31.7169  -77.8693 H         1 UNK         0.0900 
     70 H70       -81.2468   30.8086  -75.0847 H         1 UNK         0.2959 
     71 H71       -80.6228   28.1702  -76.0584 H         1 UNK         0.1079 
     72 H72       -79.1109   28.0860  -74.0272 H         1 UNK         0.0837 
     73 H73       -78.7994   29.3791  -75.1322 H         1 UNK         0.0837 
     74 H74       -80.6119   28.6733  -71.5774 H         1 UNK         0.0685 
     75 H75       -79.7232   29.8994  -70.7074 H         1 UNK         0.0685 
     76 H76       -79.6738   26.5561  -71.1577 H         1 UNK         0.1434 
     77 H77       -75.4321   25.9392  -71.0933 H         1 UNK         0.1329 
     78 H78       -77.0232   29.8826  -71.6432 H         1 UNK         0.1335 
     79 H79       -74.6026   29.5174  -71.0492 H         1 UNK         0.0680 
     80 H80       -73.9838   27.8948  -70.8929 H         1 UNK         0.0680 
     81 H81       -75.3619   30.6065  -73.0943 H         1 UNK         0.1032 
     82 H82       -75.2162   30.0069  -74.7158 H         1 UNK         0.1032 
     83 H83       -73.9091   32.0483  -74.5187 H         1 UNK         0.0461 
     84 H84       -71.2006   31.3969  -71.5256 H         1 UNK         0.3453 
     85 H85       -71.1996   30.3713  -72.9458 H         1 UNK         0.3453 
     86 H86       -72.6377   29.5880  -75.1986 H         1 UNK         0.2984 
     87 H87       -70.7294   30.4918  -77.4532 H         1 UNK         0.0554 
     88 H88       -68.3446   30.2035  -76.7259 H         1 UNK         0.0847 
     89 H89       -68.7776   30.7341  -75.1012 H         1 UNK         0.0847 
     90 H90       -68.9111   31.8418  -76.4584 H         1 UNK         0.0847 
     91 H91       -70.7768   28.3218  -76.9843 H         1 UNK         0.3141 
     92 H92       -69.8418   26.2755  -75.4999 H         1 UNK         0.0743 
     93 H93       -71.8086   26.4511  -73.1613 H         1 UNK         0.0784 
     94 H94       -71.0270   24.9791  -73.7334 H         1 UNK         0.0784 
     95 H95       -70.0640   26.2690  -73.0331 H         1 UNK         0.0784 
     96 H96       -72.7238   25.9940  -75.4187 H         1 UNK         0.3213 
     97 H97       -73.3607   26.5631  -78.7892 H         1 UNK         0.0855 
     98 H98       -72.7624   23.7048  -77.8524 H         1 UNK         0.0814 
     99 H99       -72.1118   24.4713  -79.2946 H         1 UNK         0.0814 
    100 H100      -73.8336   24.1437  -79.1823 H         1 UNK         0.0814 
    101 H101      -74.7393   24.8970  -76.9114 H         1 UNK         0.3105 
    102 H102      -76.1475   27.3572  -74.8774 H         1 UNK         0.0547 
    103 H103      -77.5313   27.9239  -76.8573 H         1 UNK         0.0837 
    104 H104      -77.5772   26.2350  -77.3462 H         1 UNK         0.0837 
    105 H105      -78.3713   26.7412  -75.8624 H         1 UNK         0.0837 
    106 H106      -77.0926   24.7641  -75.3294 H         1 UNK         0.3020 
    107 H107      -74.5608   22.7646  -73.9844 H         1 UNK         0.1245 
    108 H108      -75.4682   23.6907  -71.8331 H         1 UNK         0.0781 
    109 H109      -76.0134   22.0846  -72.1898 H         1 UNK         0.0781 
    110 H110      -77.0531   24.2213  -70.1354 H         1 UNK         0.0836 
    111 H111      -78.7644   24.4747  -70.3032 H         1 UNK         0.0836 
    112 H112      -77.2536   22.1549  -74.5486 H         1 UNK         0.3022 
    113 H113      -77.3751   22.3400  -77.9862 H         1 UNK         0.0747 
    114 H114      -77.6718   19.8840  -78.1630 H         1 UNK         0.0793 
    115 H115      -75.9697   20.2658  -77.9765 H         1 UNK         0.0793 
    116 H116      -76.8780   19.6461  -76.6047 H         1 UNK         0.0793 
    117 H117      -79.0733   20.8475  -76.3468 H         1 UNK         0.3047 
    118 H118      -81.3607   22.3612  -76.1425 H         1 UNK         0.0822 
    119 H119      -80.4173   20.4662  -74.8143 H         1 UNK         0.0807 
    120 H120      -81.5990   21.3060  -73.8373 H         1 UNK         0.0807 
    121 H121      -79.8837   21.5725  -73.5524 H         1 UNK         0.0807 
    122 H122      -80.2917   24.4220  -74.4303 H         1 UNK         0.2946 
    123 H123      -83.5281   25.8555  -73.8511 H         1 UNK         0.1144 
    124 H124      -82.8686   24.7564  -71.7332 H         1 UNK         0.0793 
    125 H125      -82.2861   26.4117  -71.7168 H         1 UNK         0.0793 
    126 H126      -81.1711   25.0800  -72.0374 H         1 UNK         0.0793 
    127 H127      -80.9110   26.1904  -74.9819 H         1 UNK         0.2896 
@<TRIPOS>BOND
     1    1    2 1    
     2    1   67 1    
     3    1   68 1    
     4    1   69 1    
     5    2    3 2    
     6    2    4 am   BACKBONE|DICT|INTERRES
     7    4    5 1    
     8    4   70 1    
     9    5    6 1    
    10    5   65 1    
    11    5   71 1    
    12    6    7 1    
    13    6   72 1    
    14    6   73 1    
    15    7    8 1    
    16    8    9 1    
    17    8   74 1    
    18    8   75 1    
    19    9   10 ar   
    20    9   14 ar   
    21   10   11 ar   
    22   10   76 1    
    23   11   12 ar   
    24   11   48 1    
    25   12   13 ar   
    26   12   77 1    
    27   13   14 ar   
    28   13   15 1    
    29   14   78 1    
    30   15   16 1    
    31   15   79 1    
    32   15   80 1    
    33   16   17 1    
    34   17   18 1    
    35   17   81 1    
    36   17   82 1    
    37   18   19 1    
    38   18   22 1    
    39   18   83 1    
    40   19   20 am   BACKBONE|DICT|INTERRES
    41   19   21 2    
    42   20   84 1    
    43   20   85 1    
    44   22   23 am   BACKBONE|DICT|INTERRES
    45   22   86 1    
    46   23   24 2    
    47   23   25 1    
    48   25   26 1    
    49   25   27 1    
    50   25   87 1    
    51   26   88 1    
    52   26   89 1    
    53   26   90 1    
    54   27   28 am   BACKBONE|DICT|INTERRES
    55   27   91 1    
    56   28   29 2    
    57   28   30 1    
    58   30   31 1    
    59   30   32 1    
    60   30   92 1    
    61   31   93 1    
    62   31   94 1    
    63   31   95 1    
    64   32   33 am   BACKBONE|DICT|INTERRES
    65   32   96 1    
    66   33   34 2    
    67   33   35 1    
    68   35   36 1    
    69   35   37 1    
    70   35   97 1    
    71   36   98 1    
    72   36   99 1    
    73   36  100 1    
    74   37   38 am   BACKBONE|DICT|INTERRES
    75   37  101 1    
    76   38   39 2    
    77   38   40 1    
    78   40   41 1    
    79   40   42 1    
    80   40  102 1    
    81   41  103 1    
    82   41  104 1    
    83   41  105 1    
    84   42   43 am   BACKBONE|DICT|INTERRES
    85   42  106 1    
    86   43   44 2    
    87   43   45 1    
    88   45   46 1    
    89   45   49 1    
    90   45  107 1    
    91   46   47 1    
    92   46  108 1    
    93   46  109 1    
    94   47   48 1    
    95   48  110 1    
    96   48  111 1    
    97   49   50 am   BACKBONE|DICT|INTERRES
    98   49  112 1    
    99   50   51 2    
   100   50   52 1    
   101   52   53 1    
   102   52   54 1    
   103   52  113 1    
   104   53  114 1    
   105   53  115 1    
   106   53  116 1    
   107   54   55 am   BACKBONE|DICT|INTERRES
   108   54  117 1    
   109   55   56 2    
   110   55   57 1    
   111   57   58 1    
   112   57   59 1    
   113   57  118 1    
   114   58  119 1    
   115   58  120 1    
   116   58  121 1    
   117   59   60 am   BACKBONE|DICT|INTERRES
   118   59  122 1    
   119   60   61 2    
   120   60   62 1    
   121   62   63 1    
   122   62   64 1    
   123   62  123 1    
   124   63  124 1    
   125   63  125 1    
   126   63  126 1    
   127   64   65 am   BACKBONE|DICT|INTERRES
   128   64  127 1    
   129   65   66 2    
@<TRIPOS>SUBSTRUCTURE
     1 UNK         1 GROUP             0       ****    0 ROOT    
