@<TRIPOS>MOLECULE
3R135
127   129    1
SMALL
USER_CHARGES


@<TRIPOS>ATOM
      1 CA        -84.9384   29.8465  -73.0954 C.3       0 UNK        -0.1998 
      2 C         -83.5393   29.6201  -73.6481 C.2       0 UNK         0.4909 
      3 O         -83.0694   30.4085  -74.4689 O.2       0 UNK        -0.5240 
      4 N         -82.8702   28.5470  -73.2065 N.am      1 UNK        -0.4739 
      5 CA        -81.5061   28.1824  -73.6189 C.3       1 UNK         0.0864 
      6 C6        -80.8278   27.2149  -72.6141 C.3       11 UNK        -0.0881 
      7 S7        -80.8968   27.7812  -70.8799 S.3       11 UNK        -0.2682 
      8 C8        -79.5365   28.9944  -70.8104 C.3       11 UNK         0.0289 
      9 C9        -78.1651   28.3940  -71.1001 C.ar      11 UNK        -0.0687 
     10 C10       -77.7185   27.2615  -70.4111 C.ar      11 UNK        -0.0823 
     11 C11       -76.4540   26.7208  -70.6663 C.ar      11 UNK        -0.0830 
     12 C12       -75.6192   27.3480  -71.5978 C.ar      11 UNK        -0.1021 
     13 C13       -76.0589   28.4694  -72.3058 C.ar      11 UNK        -0.0753 
     14 C14       -77.3310   28.9889  -72.0510 C.ar      11 UNK        -0.0933 
     15 C15       -75.1832   29.0978  -73.3774 C.3       11 UNK         0.0166 
     16 S16       -74.0987   30.3917  -72.7077 S.3       11 UNK        -0.2615 
     17 C17       -73.9872   31.5464  -74.1216 C.3       11 UNK        -0.0865 
     18 CA        -73.5440   30.9177  -75.4804 C.3       10 UNK         0.0862 
     19 C         -73.6180   31.9379  -76.6585 C.2       10 UNK         0.5551 
     20 N         -72.7636   31.8431  -77.6705 N.am      10 UNK        -0.7319 
     21 O         -74.4810   32.8125  -76.6748 O.2       10 UNK        -0.5018 
     22 N         -72.2793   30.1621  -75.4066 N.am      10 UNK        -0.4509 
     23 C         -71.0772   30.6632  -75.0865 C.2       10 UNK         0.4899 
     24 O         -70.8914   31.8367  -74.7602 O.2       10 UNK        -0.4839 
     25 CA        -69.8675   29.7107  -75.1961 C.3       9 UNK         0.0222 
     26 CB        -68.6968   30.1265  -74.2790 C.3       9 UNK        -0.1966 
     27 N         -70.1959   28.2909  -75.0156 N.am      9 UNK        -0.4218 
     28 C         -70.6739   27.6878  -73.9183 C.2       9 UNK         0.5020 
     29 O         -70.9273   28.2739  -72.8649 O.2       9 UNK        -0.5274 
     30 CA        -70.8973   26.1660  -74.0315 C.3       8 UNK         0.0270 
     31 CB        -71.4219   25.5448  -72.7224 C.3       8 UNK        -0.1976 
     32 N         -71.8025   25.8171  -75.1333 N.am      8 UNK        -0.4313 
     33 C         -71.4606   25.7791  -76.4311 C.2       8 UNK         0.5041 
     34 O         -70.3334   26.0749  -76.8324 O.2       8 UNK        -0.5577 
     35 CA        -72.5251   25.3635  -77.4660 C.3       7 UNK         0.0284 
     36 CB        -72.3087   23.9038  -77.8962 C.3       7 UNK        -0.1958 
     37 N         -73.9042   25.5212  -77.0053 N.am      7 UNK        -0.4454 
     38 C         -74.5054   26.6933  -76.7573 C.2       7 UNK         0.5089 
     39 O         -73.9777   27.7877  -76.9568 O.2       7 UNK        -0.5125 
     40 CA        -75.9183   26.6334  -76.1407 C.3       6 UNK         0.0408 
     41 CB        -76.9796   26.7759  -77.2410 C.3       6 UNK        -0.1791 
     42 N         -76.1943   25.4282  -75.3427 N.am      6 UNK        -0.4762 
     43 C         -75.4380   24.9761  -74.3250 C.2       6 UNK         0.5007 
     44 O         -74.4063   25.5380  -73.9637 O.2       6 UNK        -0.5032 
     45 CA        -75.8300   23.6426  -73.6456 C.3       5 UNK         0.0783 
     46 C46       -76.4662   23.8587  -72.2469 C.3       11 UNK        -0.0857 
     47 S47       -75.2037   24.2070  -70.9711 S.3       11 UNK        -0.2512 
     48 C48       -76.0074   25.4667  -69.9190 C.3       11 UNK         0.0225 
     49 N         -76.6637   22.7872  -74.4958 N.am      5 UNK        -0.4615 
     50 C         -76.2870   22.2686  -75.6741 C.2       4 UNK         0.5053 
     51 O         -75.1544   22.3935  -76.1416 O.2       4 UNK        -0.5105 
     52 CA        -77.3594   21.5232  -76.4930 C.3       4 UNK         0.0263 
     53 CB        -77.1813   20.0036  -76.3453 C.3       4 UNK        -0.1981 
     54 N         -78.7491   21.8800  -76.1700 N.am      4 UNK        -0.4224 
     55 C         -79.2748   23.1113  -76.2401 C.2       3 UNK         0.4895 
     56 O         -78.6284   24.1174  -76.5421 O.2       3 UNK        -0.5091 
     57 CA        -80.7535   23.2424  -75.8601 C.3       3 UNK         0.0250 
     58 CB        -80.9576   23.0351  -74.3468 C.3       3 UNK        -0.1996 
     59 N         -81.2212   24.5745  -76.2293 N.am      3 UNK        -0.4254 
     60 C         -82.4709   24.9033  -76.5676 C.2       2 UNK         0.5004 
     61 O         -83.4005   24.0956  -76.6236 O.2       2 UNK        -0.5226 
     62 CA        -82.7258   26.3993  -76.8269 C.3       2 UNK         0.0269 
     63 CB        -84.1162   26.6712  -77.4317 C.3       2 UNK        -0.1926 
     64 N         -82.6023   27.1433  -75.5725 N.am      2 UNK        -0.4687 
     65 C         -81.4509   27.5747  -75.0379 C.2       1 UNK         0.5165 
     66 O         -80.3643   27.4681  -75.6075 O.2       1 UNK        -0.5079 
     67 H67       -84.9916   30.8128  -72.5947 H         1 UNK         0.0900 
     68 H68       -85.2228   29.0772  -72.3776 H         1 UNK         0.0900 
     69 H69       -85.6674   29.8414  -73.9052 H         1 UNK         0.0900 
     70 H70       -83.2902   27.9461  -72.5108 H         1 UNK         0.2959 
     71 H71       -80.9110   29.0977  -73.6544 H         1 UNK         0.1079 
     72 H72       -81.3082   26.2349  -72.6508 H         1 UNK         0.0837 
     73 H73       -79.7853   27.0424  -72.8899 H         1 UNK         0.0837 
     74 H74       -79.5171   29.4377  -69.8141 H         1 UNK         0.0685 
     75 H75       -79.7599   29.8080  -71.5020 H         1 UNK         0.0685 
     76 H76       -78.3650   26.7978  -69.6784 H         1 UNK         0.1434 
     77 H77       -74.6346   26.9467  -71.7945 H         1 UNK         0.1329 
     78 H78       -77.6690   29.8605  -72.5947 H         1 UNK         0.1335 
     79 H79       -74.5614   28.3383  -73.8539 H         1 UNK         0.0680 
     80 H80       -75.8229   29.5156  -74.1557 H         1 UNK         0.0680 
     81 H81       -74.9689   32.0119  -74.2269 H         1 UNK         0.1032 
     82 H82       -73.3115   32.3560  -73.8422 H         1 UNK         0.1032 
     83 H83       -74.2919   30.1746  -75.7514 H         1 UNK         0.0461 
     84 H84       -72.0657   31.1173  -77.6820 H         1 UNK         0.3453 
     85 H85       -72.8247   32.4996  -78.4327 H         1 UNK         0.3453 
     86 H86       -72.3418   29.1934  -75.6877 H         1 UNK         0.2984 
     87 H87       -69.5176   29.8002  -76.2253 H         1 UNK         0.0554 
     88 H88       -67.8476   29.4519  -74.3867 H         1 UNK         0.0847 
     89 H89       -68.9893   30.1338  -73.2285 H         1 UNK         0.0847 
     90 H90       -68.3432   31.1290  -74.5230 H         1 UNK         0.0847 
     91 H91       -70.0510   27.6905  -75.8255 H         1 UNK         0.3141 
     92 H92       -69.9227   25.7161  -74.2331 H         1 UNK         0.0743 
     93 H93       -72.3619   25.9981  -72.4064 H         1 UNK         0.0784 
     94 H94       -71.5862   24.4722  -72.8260 H         1 UNK         0.0784 
     95 H95       -70.7073   25.6870  -71.9109 H         1 UNK         0.0784 
     96 H96       -72.7687   25.6350  -74.8673 H         1 UNK         0.3213 
     97 H97       -72.3905   26.0025  -78.3414 H         1 UNK         0.0855 
     98 H98       -72.4548   23.2129  -77.0646 H         1 UNK         0.0814 
     99 H99       -71.2961   23.7525  -78.2729 H         1 UNK         0.0814 
    100 H100      -72.9955   23.6181  -78.6932 H         1 UNK         0.0814 
    101 H101      -74.4118   24.6727  -76.7895 H         1 UNK         0.3105 
    102 H102      -76.0214   27.4876  -75.4738 H         1 UNK         0.0547 
    103 H103      -76.8140   27.6776  -77.8322 H         1 UNK         0.0837 
    104 H104      -76.9665   25.9273  -77.9260 H         1 UNK         0.0837 
    105 H105      -77.9814   26.8485  -76.8177 H         1 UNK         0.0837 
    106 H106      -77.0158   24.8957  -75.6149 H         1 UNK         0.3020 
    107 H107      -74.8949   23.0942  -73.5069 H         1 UNK         0.1245 
    108 H108      -76.9882   22.9558  -71.9260 H         1 UNK         0.0781 
    109 H109      -77.2227   24.6451  -72.2757 H         1 UNK         0.0781 
    110 H110      -75.3101   25.7609  -69.1337 H         1 UNK         0.0836 
    111 H111      -76.8547   24.9975  -69.4167 H         1 UNK         0.0836 
    112 H112      -77.6135   22.6362  -74.1920 H         1 UNK         0.3022 
    113 H113      -77.1949   21.7858  -77.5401 H         1 UNK         0.0747 
    114 H114      -77.8568   19.4575  -77.0040 H         1 UNK         0.0793 
    115 H115      -76.1657   19.7016  -76.6063 H         1 UNK         0.0793 
    116 H116      -77.3664   19.6729  -75.3224 H         1 UNK         0.0793 
    117 H117      -79.3520   21.1159  -75.8992 H         1 UNK         0.3047 
    118 H118      -81.3148   22.4895  -76.4178 H         1 UNK         0.0822 
    119 H119      -80.6380   22.0410  -74.0325 H         1 UNK         0.0807 
    120 H120      -82.0084   23.1329  -74.0729 H         1 UNK         0.0807 
    121 H121      -80.3934   23.7626  -73.7615 H         1 UNK         0.0807 
    122 H122      -80.5008   25.2898  -76.2353 H         1 UNK         0.2946 
    123 H123      -81.9743   26.7482  -77.5395 H         1 UNK         0.1144 
    124 H124      -84.2439   26.1332  -78.3721 H         1 UNK         0.0793 
    125 H125      -84.2538   27.7315  -77.6448 H         1 UNK         0.0793 
    126 H126      -84.9194   26.3572  -76.7639 H         1 UNK         0.0793 
    127 H127      -83.4429   27.2465  -75.0227 H         1 UNK         0.2896 
@<TRIPOS>BOND
     1    1    2 1    
     2    1   67 1    
     3    1   68 1    
     4    1   69 1    
     5    2    3 2    
     6    2    4 am   BACKBONE|DICT|INTERRES
     7    4    5 1    
     8    4   70 1    
     9    5    6 1    
    10    5   65 1    
    11    5   71 1    
    12    6    7 1    
    13    6   72 1    
    14    6   73 1    
    15    7    8 1    
    16    8    9 1    
    17    8   74 1    
    18    8   75 1    
    19    9   10 ar   
    20    9   14 ar   
    21   10   11 ar   
    22   10   76 1    
    23   11   12 ar   
    24   11   48 1    
    25   12   13 ar   
    26   12   77 1    
    27   13   14 ar   
    28   13   15 1    
    29   14   78 1    
    30   15   16 1    
    31   15   79 1    
    32   15   80 1    
    33   16   17 1    
    34   17   18 1    
    35   17   81 1    
    36   17   82 1    
    37   18   19 1    
    38   18   22 1    
    39   18   83 1    
    40   19   20 am   BACKBONE|DICT|INTERRES
    41   19   21 2    
    42   20   84 1    
    43   20   85 1    
    44   22   23 am   BACKBONE|DICT|INTERRES
    45   22   86 1    
    46   23   24 2    
    47   23   25 1    
    48   25   26 1    
    49   25   27 1    
    50   25   87 1    
    51   26   88 1    
    52   26   89 1    
    53   26   90 1    
    54   27   28 am   BACKBONE|DICT|INTERRES
    55   27   91 1    
    56   28   29 2    
    57   28   30 1    
    58   30   31 1    
    59   30   32 1    
    60   30   92 1    
    61   31   93 1    
    62   31   94 1    
    63   31   95 1    
    64   32   33 am   BACKBONE|DICT|INTERRES
    65   32   96 1    
    66   33   34 2    
    67   33   35 1    
    68   35   36 1    
    69   35   37 1    
    70   35   97 1    
    71   36   98 1    
    72   36   99 1    
    73   36  100 1    
    74   37   38 am   BACKBONE|DICT|INTERRES
    75   37  101 1    
    76   38   39 2    
    77   38   40 1    
    78   40   41 1    
    79   40   42 1    
    80   40  102 1    
    81   41  103 1    
    82   41  104 1    
    83   41  105 1    
    84   42   43 am   BACKBONE|DICT|INTERRES
    85   42  106 1    
    86   43   44 2    
    87   43   45 1    
    88   45   46 1    
    89   45   49 1    
    90   45  107 1    
    91   46   47 1    
    92   46  108 1    
    93   46  109 1    
    94   47   48 1    
    95   48  110 1    
    96   48  111 1    
    97   49   50 am   BACKBONE|DICT|INTERRES
    98   49  112 1    
    99   50   51 2    
   100   50   52 1    
   101   52   53 1    
   102   52   54 1    
   103   52  113 1    
   104   53  114 1    
   105   53  115 1    
   106   53  116 1    
   107   54   55 am   BACKBONE|DICT|INTERRES
   108   54  117 1    
   109   55   56 2    
   110   55   57 1    
   111   57   58 1    
   112   57   59 1    
   113   57  118 1    
   114   58  119 1    
   115   58  120 1    
   116   58  121 1    
   117   59   60 am   BACKBONE|DICT|INTERRES
   118   59  122 1    
   119   60   61 2    
   120   60   62 1    
   121   62   63 1    
   122   62   64 1    
   123   62  123 1    
   124   63  124 1    
   125   63  125 1    
   126   63  126 1    
   127   64   65 am   BACKBONE|DICT|INTERRES
   128   64  127 1    
   129   65   66 2    
@<TRIPOS>SUBSTRUCTURE
     1 UNK         1 GROUP             0       ****    0 ROOT    
