@<TRIPOS>MOLECULE
3R135
127   129    1
SMALL
USER_CHARGES


@<TRIPOS>ATOM
      1 CA        -81.2517   23.1318  -69.8556 C.3       0 UNK        -0.1998 
      2 C         -81.9812   24.3597  -70.3796 C.2       0 UNK         0.4909 
      3 O         -83.1486   24.5694  -70.0478 O.2       0 UNK        -0.5240 
      4 N         -81.3044   25.1672  -71.1996 N.am      1 UNK        -0.4739 
      5 CA        -81.8252   26.3845  -71.8189 C.3       1 UNK         0.0864 
      6 C6        -81.8434   27.6119  -70.8661 C.3       11 UNK        -0.0881 
      7 S7        -80.3161   27.8788  -69.8949 S.3       11 UNK        -0.2682 
      8 C8        -79.5548   29.3359  -70.6915 C.3       11 UNK         0.0289 
      9 C9        -78.4516   28.9950  -71.6916 C.ar      11 UNK        -0.0687 
     10 C10       -78.3362   29.7267  -72.8776 C.ar      11 UNK        -0.0823 
     11 C11       -77.2822   29.4965  -73.7690 C.ar      11 UNK        -0.0830 
     12 C12       -76.3433   28.5025  -73.4630 C.ar      11 UNK        -0.1021 
     13 C13       -76.4428   27.7566  -72.2832 C.ar      11 UNK        -0.0753 
     14 C14       -77.4978   28.0128  -71.4043 C.ar      11 UNK        -0.0933 
     15 C15       -75.4364   26.6594  -71.9415 C.3       11 UNK         0.0166 
     16 S16       -73.6988   27.0791  -72.2957 S.3       11 UNK        -0.2615 
     17 C17       -73.3941   28.5242  -71.2174 C.3       11 UNK        -0.0865 
     18 CA        -73.4847   29.8811  -71.9682 C.3       10 UNK         0.0862 
     19 C         -73.0942   31.0599  -71.0380 C.2       10 UNK         0.5551 
     20 N         -74.0399   31.5779  -70.2662 N.am      10 UNK        -0.7319 
     21 O         -71.9387   31.4767  -70.9759 O.2       10 UNK        -0.5018 
     22 N         -72.7164   29.8614  -73.2201 N.am      10 UNK        -0.4509 
     23 C         -72.8624   30.7244  -74.2313 C.2       10 UNK         0.4899 
     24 O         -73.6342   31.6838  -74.2036 O.2       10 UNK        -0.4839 
     25 CA        -72.0107   30.4901  -75.4976 C.3       9 UNK         0.0222 
     26 CB        -70.9687   31.6105  -75.6570 C.3       9 UNK        -0.1966 
     27 N         -71.3242   29.1914  -75.5608 N.am      9 UNK        -0.4218 
     28 C         -71.9260   28.0026  -75.7051 C.2       9 UNK         0.5020 
     29 O         -73.1459   27.8500  -75.7582 O.2       9 UNK        -0.5274 
     30 CA        -71.0098   26.7752  -75.7759 C.3       8 UNK         0.0270 
     31 CB        -70.3608   26.4878  -74.4058 C.3       8 UNK        -0.1976 
     32 N         -71.8024   25.6268  -76.2114 N.am      8 UNK        -0.4313 
     33 C         -71.3200   24.4671  -76.6708 C.2       8 UNK         0.5041 
     34 O         -70.1187   24.2351  -76.8161 O.2       8 UNK        -0.5577 
     35 CA        -72.3395   23.3713  -77.0187 C.3       7 UNK         0.0284 
     36 CB        -72.7243   22.5789  -75.7581 C.3       7 UNK        -0.1958 
     37 N         -73.5487   23.8995  -77.6557 N.am      7 UNK        -0.4454 
     38 C         -73.6481   24.1658  -78.9685 C.2       7 UNK         0.5089 
     39 O         -72.7195   24.0191  -79.7641 O.2       7 UNK        -0.5125 
     40 CA        -75.0099   24.6553  -79.5030 C.3       6 UNK         0.0408 
     41 CB        -75.8102   23.4794  -80.0849 C.3       6 UNK        -0.1791 
     42 N         -75.8163   25.3197  -78.4804 N.am      6 UNK        -0.4762 
     43 C         -75.5484   26.5302  -77.9710 C.2       6 UNK         0.5007 
     44 O         -74.7076   27.2855  -78.4587 O.2       6 UNK        -0.5032 
     45 CA        -76.3161   26.9492  -76.6948 C.3       5 UNK         0.0783 
     46 C46       -77.1201   28.2631  -76.8834 C.3       11 UNK        -0.0857 
     47 S47       -76.1663   29.7364  -76.3924 S.3       11 UNK        -0.2512 
     48 C48       -77.1676   30.3900  -75.0084 C.3       11 UNK         0.0225 
     49 N         -77.1451   25.8802  -76.1197 N.am      5 UNK        -0.4615 
     50 C         -76.6685   24.7797  -75.5173 C.2       4 UNK         0.5053 
     51 O         -75.4666   24.5231  -75.4507 O.2       4 UNK        -0.5105 
     52 CA        -77.6761   23.7775  -74.9244 C.3       4 UNK         0.0263 
     53 CB        -77.5561   23.7230  -73.3927 C.3       4 UNK        -0.1981 
     54 N         -79.0622   24.0797  -75.2867 N.am      4 UNK        -0.4224 
     55 C         -79.6415   23.7161  -76.4415 C.2       3 UNK         0.4895 
     56 O         -79.0779   23.0384  -77.3012 O.2       3 UNK        -0.5091 
     57 CA        -81.0787   24.2121  -76.7016 C.3       3 UNK         0.0250 
     58 CB        -82.0991   23.1469  -76.2695 C.3       3 UNK        -0.1996 
     59 N         -81.3918   25.4792  -76.0333 N.am      3 UNK        -0.4254 
     60 C         -80.7644   26.6410  -76.2662 C.2       2 UNK         0.5004 
     61 O         -79.9308   26.7874  -77.1584 O.2       2 UNK        -0.5226 
     62 CA        -81.0620   27.8197  -75.3177 C.3       2 UNK         0.0269 
     63 CB        -81.9832   28.8423  -76.0006 C.3       2 UNK        -0.1926 
     64 N         -81.6352   27.4414  -74.0187 N.am      2 UNK        -0.4687 
     65 C         -81.0467   26.6410  -73.1174 C.2       1 UNK         0.5165 
     66 O         -79.9632   26.0815  -73.3073 O.2       1 UNK        -0.5079 
     67 H67       -81.2092   23.1574  -68.7671 H         1 UNK         0.0900 
     68 H68       -81.7774   22.2258  -70.1558 H         1 UNK         0.0900 
     69 H69       -80.2309   23.0729  -70.2333 H         1 UNK         0.0900 
     70 H70       -80.3555   24.9519  -71.4800 H         1 UNK         0.2959 
     71 H71       -82.8544   26.1810  -72.1241 H         1 UNK         0.1079 
     72 H72       -82.6463   27.4700  -70.1411 H         1 UNK         0.0837 
     73 H73       -82.1129   28.5225  -71.4034 H         1 UNK         0.0837 
     74 H74       -80.3270   29.9502  -71.1562 H         1 UNK         0.0685 
     75 H75       -79.1122   29.9529  -69.9087 H         1 UNK         0.0685 
     76 H76       -79.0545   30.5061  -73.0933 H         1 UNK         0.1434 
     77 H77       -75.5030   28.3302  -74.1186 H         1 UNK         0.1329 
     78 H78       -77.5718   27.4502  -70.4841 H         1 UNK         0.1335 
     79 H79       -75.5150   26.3747  -70.8912 H         1 UNK         0.0680 
     80 H80       -75.6877   25.7725  -72.5216 H         1 UNK         0.0680 
     81 H81       -74.0968   28.5038  -70.3824 H         1 UNK         0.1032 
     82 H82       -72.4023   28.4012  -70.7780 H         1 UNK         0.1032 
     83 H83       -74.5272   30.0364  -72.2461 H         1 UNK         0.0461 
     84 H84       -74.9881   31.2376  -70.3053 H         1 UNK         0.3453 
     85 H85       -73.8042   32.3335  -69.6420 H         1 UNK         0.3453 
     86 H86       -72.0684   29.0972  -73.3280 H         1 UNK         0.2984 
     87 H87       -72.6944   30.5403  -76.3479 H         1 UNK         0.0554 
     88 H88       -71.4464   32.5914  -75.6636 H         1 UNK         0.0847 
     89 H89       -70.4210   31.5159  -76.5948 H         1 UNK         0.0847 
     90 H90       -70.2455   31.6078  -74.8406 H         1 UNK         0.0847 
     91 H91       -70.3156   29.2167  -75.5118 H         1 UNK         0.3141 
     92 H92       -70.2345   26.9711  -76.5194 H         1 UNK         0.0743 
     93 H93       -71.1101   26.2517  -73.6497 H         1 UNK         0.0784 
     94 H94       -69.6697   25.6467  -74.4600 H         1 UNK         0.0784 
     95 H95       -69.7897   27.3439  -74.0454 H         1 UNK         0.0784 
     96 H96       -72.8034   25.7782  -76.1552 H         1 UNK         0.3213 
     97 H97       -71.8555   22.6767  -77.7092 H         1 UNK         0.0855 
     98 H98       -73.1807   23.2166  -75.0002 H         1 UNK         0.0814 
     99 H99       -71.8447   22.1186  -75.3061 H         1 UNK         0.0814 
    100 H100      -73.4264   21.7780  -75.9900 H         1 UNK         0.0814 
    101 H101      -74.3428   24.0752  -77.0472 H         1 UNK         0.3105 
    102 H102      -74.8157   25.3669  -80.3083 H         1 UNK         0.0547 
    103 H103      -75.2457   22.9739  -80.8698 H         1 UNK         0.0837 
    104 H104      -76.0482   22.7350  -79.3238 H         1 UNK         0.0837 
    105 H105      -76.7470   23.8171  -80.5285 H         1 UNK         0.0837 
    106 H106      -76.5427   24.7714  -78.0419 H         1 UNK         0.3020 
    107 H107      -75.5365   27.1280  -75.9555 H         1 UNK         0.1245 
    108 H108      -78.0178   28.2471  -76.2679 H         1 UNK         0.0781 
    109 H109      -77.4748   28.3827  -77.9090 H         1 UNK         0.0781 
    110 H110      -78.1633   30.6223  -75.3897 H         1 UNK         0.0836 
    111 H111      -76.7289   31.3393  -74.6982 H         1 UNK         0.0836 
    112 H112      -78.1463   26.0063  -76.1986 H         1 UNK         0.3022 
    113 H113      -77.4148   22.7911  -75.3138 H         1 UNK         0.0747 
    114 H114      -78.2375   22.9864  -72.9672 H         1 UNK         0.0793 
    115 H115      -76.5464   23.4418  -73.0904 H         1 UNK         0.0793 
    116 H116      -77.7772   24.6875  -72.9354 H         1 UNK         0.0793 
    117 H117      -79.5685   24.6791  -74.6406 H         1 UNK         0.3047 
    118 H118      -81.1794   24.3701  -77.7776 H         1 UNK         0.0822 
    119 H119      -83.1166   23.4446  -76.5237 H         1 UNK         0.0807 
    120 H120      -82.0603   22.9616  -75.1952 H         1 UNK         0.0807 
    121 H121      -81.9072   22.1971  -76.7709 H         1 UNK         0.0807 
    122 H122      -82.0730   25.4477  -75.2893 H         1 UNK         0.2946 
    123 H123      -80.1058   28.3058  -75.1132 H         1 UNK         0.1144 
    124 H124      -82.1113   29.7342  -75.3869 H         1 UNK         0.0793 
    125 H125      -82.9709   28.4253  -76.2012 H         1 UNK         0.0793 
    126 H126      -81.5664   29.1672  -76.9553 H         1 UNK         0.0793 
    127 H127      -82.5342   27.8453  -73.7962 H         1 UNK         0.2896 
@<TRIPOS>BOND
     1    1    2 1    
     2    1   67 1    
     3    1   68 1    
     4    1   69 1    
     5    2    3 2    
     6    2    4 am   BACKBONE|DICT|INTERRES
     7    4    5 1    
     8    4   70 1    
     9    5    6 1    
    10    5   65 1    
    11    5   71 1    
    12    6    7 1    
    13    6   72 1    
    14    6   73 1    
    15    7    8 1    
    16    8    9 1    
    17    8   74 1    
    18    8   75 1    
    19    9   10 ar   
    20    9   14 ar   
    21   10   11 ar   
    22   10   76 1    
    23   11   12 ar   
    24   11   48 1    
    25   12   13 ar   
    26   12   77 1    
    27   13   14 ar   
    28   13   15 1    
    29   14   78 1    
    30   15   16 1    
    31   15   79 1    
    32   15   80 1    
    33   16   17 1    
    34   17   18 1    
    35   17   81 1    
    36   17   82 1    
    37   18   19 1    
    38   18   22 1    
    39   18   83 1    
    40   19   20 am   BACKBONE|DICT|INTERRES
    41   19   21 2    
    42   20   84 1    
    43   20   85 1    
    44   22   23 am   BACKBONE|DICT|INTERRES
    45   22   86 1    
    46   23   24 2    
    47   23   25 1    
    48   25   26 1    
    49   25   27 1    
    50   25   87 1    
    51   26   88 1    
    52   26   89 1    
    53   26   90 1    
    54   27   28 am   BACKBONE|DICT|INTERRES
    55   27   91 1    
    56   28   29 2    
    57   28   30 1    
    58   30   31 1    
    59   30   32 1    
    60   30   92 1    
    61   31   93 1    
    62   31   94 1    
    63   31   95 1    
    64   32   33 am   BACKBONE|DICT|INTERRES
    65   32   96 1    
    66   33   34 2    
    67   33   35 1    
    68   35   36 1    
    69   35   37 1    
    70   35   97 1    
    71   36   98 1    
    72   36   99 1    
    73   36  100 1    
    74   37   38 am   BACKBONE|DICT|INTERRES
    75   37  101 1    
    76   38   39 2    
    77   38   40 1    
    78   40   41 1    
    79   40   42 1    
    80   40  102 1    
    81   41  103 1    
    82   41  104 1    
    83   41  105 1    
    84   42   43 am   BACKBONE|DICT|INTERRES
    85   42  106 1    
    86   43   44 2    
    87   43   45 1    
    88   45   46 1    
    89   45   49 1    
    90   45  107 1    
    91   46   47 1    
    92   46  108 1    
    93   46  109 1    
    94   47   48 1    
    95   48  110 1    
    96   48  111 1    
    97   49   50 am   BACKBONE|DICT|INTERRES
    98   49  112 1    
    99   50   51 2    
   100   50   52 1    
   101   52   53 1    
   102   52   54 1    
   103   52  113 1    
   104   53  114 1    
   105   53  115 1    
   106   53  116 1    
   107   54   55 am   BACKBONE|DICT|INTERRES
   108   54  117 1    
   109   55   56 2    
   110   55   57 1    
   111   57   58 1    
   112   57   59 1    
   113   57  118 1    
   114   58  119 1    
   115   58  120 1    
   116   58  121 1    
   117   59   60 am   BACKBONE|DICT|INTERRES
   118   59  122 1    
   119   60   61 2    
   120   60   62 1    
   121   62   63 1    
   122   62   64 1    
   123   62  123 1    
   124   63  124 1    
   125   63  125 1    
   126   63  126 1    
   127   64   65 am   BACKBONE|DICT|INTERRES
   128   64  127 1    
   129   65   66 2    
@<TRIPOS>SUBSTRUCTURE
     1 UNK         1 GROUP             0       ****    0 ROOT    
