@<TRIPOS>MOLECULE
3R135
127   129    1
SMALL
USER_CHARGES


@<TRIPOS>ATOM
      1 CA        -83.7231   23.7909  -73.1593 C.3       0 UNK        -0.1998 
      2 C         -83.1255   25.1292  -73.5660 C.2       0 UNK         0.4909 
      3 O         -82.9172   25.3786  -74.7549 O.2       0 UNK        -0.5240 
      4 N         -82.8598   25.9965  -72.5812 N.am      1 UNK        -0.4739 
      5 CA        -82.2687   27.3262  -72.7637 C.3       1 UNK         0.0864 
      6 C6        -82.3730   28.1948  -71.4830 C.3       11 UNK        -0.0881 
      7 S7        -81.6985   27.4155  -69.9741 S.3       11 UNK        -0.2682 
      8 C8        -80.4440   28.6258  -69.4349 C.3       11 UNK         0.0289 
      9 C9        -79.0868   28.4327  -70.1030 C.ar      11 UNK        -0.0687 
     10 C10       -78.4271   27.2043  -70.0047 C.ar      11 UNK        -0.0823 
     11 C11       -77.1461   27.0413  -70.5352 C.ar      11 UNK        -0.0830 
     12 C12       -76.5179   28.1207  -71.1596 C.ar      11 UNK        -0.1021 
     13 C13       -77.1609   29.3607  -71.2748 C.ar      11 UNK        -0.0753 
     14 C14       -78.4521   29.5002  -70.7494 C.ar      11 UNK        -0.0933 
     15 C15       -76.4995   30.5844  -71.9201 C.3       11 UNK         0.0166 
     16 S16       -74.7689   30.3689  -72.4749 S.3       11 UNK        -0.2615 
     17 C17       -74.9886   29.4450  -74.0390 C.3       11 UNK        -0.0865 
     18 CA        -74.3886   30.1088  -75.3152 C.3       10 UNK         0.0862 
     19 C         -74.9045   31.5492  -75.6247 C.2       10 UNK         0.5551 
     20 N         -74.1292   32.3971  -76.2893 N.am      10 UNK        -0.7319 
     21 O         -76.0390   31.8924  -75.3047 O.2       10 UNK        -0.5018 
     22 N         -72.9378   29.8833  -75.4531 N.am      10 UNK        -0.4509 
     23 C         -71.9254   30.4990  -74.8282 C.2       10 UNK         0.4899 
     24 O         -72.0606   31.4217  -74.0248 O.2       10 UNK        -0.4839 
     25 CA        -70.5093   29.9885  -75.1782 C.3       9 UNK         0.0222 
     26 CB        -69.3979   30.7935  -74.4776 C.3       9 UNK        -0.1966 
     27 N         -70.3317   28.5653  -74.8664 N.am      9 UNK        -0.4218 
     28 C         -70.8498   27.5465  -75.5648 C.2       9 UNK         0.5020 
     29 O         -71.5191   27.7062  -76.5900 O.2       9 UNK        -0.5274 
     30 CA        -70.5929   26.1333  -75.0126 C.3       8 UNK         0.0270 
     31 CB        -71.1057   25.9948  -73.5657 C.3       8 UNK        -0.1976 
     32 N         -71.2875   25.1512  -75.8430 N.am      8 UNK        -0.4313 
     33 C         -70.7222   24.3730  -76.7752 C.2       8 UNK         0.5041 
     34 O         -69.5070   24.3136  -76.9713 O.2       8 UNK        -0.5577 
     35 CA        -71.6597   23.5009  -77.6364 C.3       7 UNK         0.0284 
     36 CB        -71.6507   22.0469  -77.1362 C.3       7 UNK        -0.1958 
     37 N         -73.0409   23.9893  -77.6584 N.am      7 UNK        -0.4454 
     38 C         -73.4564   25.0808  -78.3157 C.2       7 UNK         0.5089 
     39 O         -72.7534   25.7026  -79.1128 O.2       7 UNK        -0.5125 
     40 CA        -74.8911   25.5743  -78.0349 C.3       6 UNK         0.0408 
     41 CB        -75.7954   25.3363  -79.2544 C.3       6 UNK        -0.1791 
     42 N         -75.5326   24.9984  -76.8443 N.am      6 UNK        -0.4762 
     43 C         -75.1174   25.1523  -75.5761 C.2       6 UNK         0.5007 
     44 O         -74.0743   25.7356  -75.2826 O.2       6 UNK        -0.5032 
     45 CA        -75.9826   24.5368  -74.4564 C.3       5 UNK         0.0783 
     46 C46       -75.9697   25.4055  -73.1741 C.3       11 UNK        -0.0857 
     47 S47       -76.8332   24.5916  -71.7877 S.3       11 UNK        -0.2512 
     48 C48       -76.4275   25.7064  -70.4097 C.3       11 UNK         0.0225 
     49 N         -77.3501   24.3116  -74.9281 N.am      5 UNK        -0.4615 
     50 C         -77.9315   23.1206  -75.1078 C.2       4 UNK         0.5053 
     51 O         -77.3523   22.0460  -74.9487 O.2       4 UNK        -0.5105 
     52 CA        -79.4094   23.1183  -75.5416 C.3       4 UNK         0.0263 
     53 CB        -80.3142   22.7221  -74.3655 C.3       4 UNK        -0.1981 
     54 N         -79.8575   24.4074  -76.0768 N.am      4 UNK        -0.4224 
     55 C         -79.5137   24.8801  -77.2830 C.2       3 UNK         0.4895 
     56 O         -78.8374   24.2490  -78.0950 O.2       3 UNK        -0.5091 
     57 CA        -79.9620   26.3100  -77.6276 C.3       3 UNK         0.0250 
     58 CB        -81.3576   26.2961  -78.2711 C.3       3 UNK        -0.1996 
     59 N         -79.9666   27.2159  -76.4751 N.am      3 UNK        -0.4254 
     60 C         -78.8827   27.5781  -75.7716 C.2       2 UNK         0.5004 
     61 O         -77.7450   27.1805  -76.0115 O.2       2 UNK        -0.5226 
     62 CA        -79.1048   28.5293  -74.5846 C.3       2 UNK         0.0269 
     63 CB        -78.9386   29.9860  -75.0407 C.3       2 UNK        -0.1926 
     64 N         -80.4145   28.3772  -73.9494 N.am      2 UNK        -0.4687 
     65 C         -80.8293   27.2714  -73.3169 C.2       1 UNK         0.5165 
     66 O         -80.1398   26.2565  -73.1894 O.2       1 UNK        -0.5079 
     67 H67       -84.2907   23.3590  -73.9832 H         1 UNK         0.0900 
     68 H68       -84.3969   23.9027  -72.3100 H         1 UNK         0.0900 
     69 H69       -82.9356   23.0916  -72.8817 H         1 UNK         0.0900 
     70 H70       -83.0057   25.7226  -71.6198 H         1 UNK         0.2959 
     71 H71       -82.8698   27.8174  -73.5326 H         1 UNK         0.1079 
     72 H72       -81.9082   29.1700  -71.6392 H         1 UNK         0.0837 
     73 H73       -83.4244   28.4111  -71.2874 H         1 UNK         0.0837 
     74 H74       -80.8206   29.6385  -69.5863 H         1 UNK         0.0685 
     75 H75       -80.3079   28.5158  -68.3582 H         1 UNK         0.0685 
     76 H76       -78.9096   26.3757  -69.5043 H         1 UNK         0.1434 
     77 H77       -75.5200   27.9775  -71.5458 H         1 UNK         0.1329 
     78 H78       -78.9520   30.4569  -70.8165 H         1 UNK         0.1335 
     79 H79       -77.1023   30.9251  -72.7619 H         1 UNK         0.0680 
     80 H80       -76.5087   31.3973  -71.1927 H         1 UNK         0.0680 
     81 H81       -76.0527   29.2684  -74.1977 H         1 UNK         0.1032 
     82 H82       -74.5581   28.4506  -73.9095 H         1 UNK         0.1032 
     83 H83       -74.7954   29.5299  -76.1456 H         1 UNK         0.0461 
     84 H84       -74.4735   33.3205  -76.4993 H         1 UNK         0.3453 
     85 H85       -73.1967   32.1294  -76.5588 H         1 UNK         0.3453 
     86 H86       -72.6752   29.1264  -76.0800 H         1 UNK         0.2984 
     87 H87       -70.3794   30.1229  -76.2542 H         1 UNK         0.0554 
     88 H88       -68.4079   30.4595  -74.7887 H         1 UNK         0.0847 
     89 H89       -69.4571   30.7058  -73.3920 H         1 UNK         0.0847 
     90 H90       -69.4696   31.8541  -74.7228 H         1 UNK         0.0847 
     91 H91       -69.8175   28.3558  -74.0229 H         1 UNK         0.3141 
     92 H92       -69.5164   25.9517  -75.0262 H         1 UNK         0.0743 
     93 H93       -70.5331   26.6158  -72.8764 H         1 UNK         0.0784 
     94 H94       -72.1526   26.2885  -73.4765 H         1 UNK         0.0784 
     95 H95       -71.0186   24.9669  -73.2130 H         1 UNK         0.0784 
     96 H96       -72.3019   25.2148  -75.8080 H         1 UNK         0.3213 
     97 H97       -71.2730   23.5147  -78.6578 H         1 UNK         0.0855 
     98 H98       -70.6381   21.6410  -77.1381 H         1 UNK         0.0814 
     99 H99       -72.2566   21.4030  -77.7741 H         1 UNK         0.0814 
    100 H100      -72.0310   21.9670  -76.1170 H         1 UNK         0.0814 
    101 H101      -73.7004   23.5309  -77.0473 H         1 UNK         0.3105 
    102 H102      -74.8231   26.6519  -77.8719 H         1 UNK         0.0547 
    103 H103      -75.3551   25.7560  -80.1600 H         1 UNK         0.0837 
    104 H104      -75.9612   24.2733  -79.4332 H         1 UNK         0.0837 
    105 H105      -76.7678   25.8108  -79.1224 H         1 UNK         0.0837 
    106 H106      -76.4083   24.5166  -76.9966 H         1 UNK         0.3020 
    107 H107      -75.5095   23.5827  -74.2140 H         1 UNK         0.1245 
    108 H108      -76.4424   26.3699  -73.3689 H         1 UNK         0.0781 
    109 H109      -74.9474   25.6151  -72.8535 H         1 UNK         0.0781 
    110 H110      -75.3473   25.8531  -70.3605 H         1 UNK         0.0836 
    111 H111      -76.7089   25.2231  -69.4729 H         1 UNK         0.0836 
    112 H112      -77.8826   25.1512  -75.1185 H         1 UNK         0.3022 
    113 H113      -79.5177   22.3630  -76.3230 H         1 UNK         0.0747 
    114 H114      -81.3508   22.6239  -74.6869 H         1 UNK         0.0793 
    115 H115      -80.0139   21.7616  -73.9445 H         1 UNK         0.0793 
    116 H116      -80.2746   23.4585  -73.5613 H         1 UNK         0.0793 
    117 H117      -80.4159   24.9882  -75.4636 H         1 UNK         0.3047 
    118 H118      -79.2519   26.7075  -78.3560 H         1 UNK         0.0822 
    119 H119      -81.6505   27.2909  -78.6071 H         1 UNK         0.0807 
    120 H120      -82.1189   25.9373  -77.5766 H         1 UNK         0.0807 
    121 H121      -81.3782   25.6420  -79.1441 H         1 UNK         0.0807 
    122 H122      -80.8625   27.5855  -76.1918 H         1 UNK         0.2946 
    123 H123      -78.3418   28.3020  -73.8362 H         1 UNK         0.1144 
    124 H124      -78.9854   30.6769  -74.1993 H         1 UNK         0.0793 
    125 H125      -79.7086   30.2770  -75.7562 H         1 UNK         0.0793 
    126 H126      -77.9755   30.1319  -75.5295 H         1 UNK         0.0793 
    127 H127      -81.0359   29.1714  -74.0084 H         1 UNK         0.2896 
@<TRIPOS>BOND
     1    1    2 1    
     2    1   67 1    
     3    1   68 1    
     4    1   69 1    
     5    2    3 2    
     6    2    4 am   BACKBONE|DICT|INTERRES
     7    4    5 1    
     8    4   70 1    
     9    5    6 1    
    10    5   65 1    
    11    5   71 1    
    12    6    7 1    
    13    6   72 1    
    14    6   73 1    
    15    7    8 1    
    16    8    9 1    
    17    8   74 1    
    18    8   75 1    
    19    9   10 ar   
    20    9   14 ar   
    21   10   11 ar   
    22   10   76 1    
    23   11   12 ar   
    24   11   48 1    
    25   12   13 ar   
    26   12   77 1    
    27   13   14 ar   
    28   13   15 1    
    29   14   78 1    
    30   15   16 1    
    31   15   79 1    
    32   15   80 1    
    33   16   17 1    
    34   17   18 1    
    35   17   81 1    
    36   17   82 1    
    37   18   19 1    
    38   18   22 1    
    39   18   83 1    
    40   19   20 am   BACKBONE|DICT|INTERRES
    41   19   21 2    
    42   20   84 1    
    43   20   85 1    
    44   22   23 am   BACKBONE|DICT|INTERRES
    45   22   86 1    
    46   23   24 2    
    47   23   25 1    
    48   25   26 1    
    49   25   27 1    
    50   25   87 1    
    51   26   88 1    
    52   26   89 1    
    53   26   90 1    
    54   27   28 am   BACKBONE|DICT|INTERRES
    55   27   91 1    
    56   28   29 2    
    57   28   30 1    
    58   30   31 1    
    59   30   32 1    
    60   30   92 1    
    61   31   93 1    
    62   31   94 1    
    63   31   95 1    
    64   32   33 am   BACKBONE|DICT|INTERRES
    65   32   96 1    
    66   33   34 2    
    67   33   35 1    
    68   35   36 1    
    69   35   37 1    
    70   35   97 1    
    71   36   98 1    
    72   36   99 1    
    73   36  100 1    
    74   37   38 am   BACKBONE|DICT|INTERRES
    75   37  101 1    
    76   38   39 2    
    77   38   40 1    
    78   40   41 1    
    79   40   42 1    
    80   40  102 1    
    81   41  103 1    
    82   41  104 1    
    83   41  105 1    
    84   42   43 am   BACKBONE|DICT|INTERRES
    85   42  106 1    
    86   43   44 2    
    87   43   45 1    
    88   45   46 1    
    89   45   49 1    
    90   45  107 1    
    91   46   47 1    
    92   46  108 1    
    93   46  109 1    
    94   47   48 1    
    95   48  110 1    
    96   48  111 1    
    97   49   50 am   BACKBONE|DICT|INTERRES
    98   49  112 1    
    99   50   51 2    
   100   50   52 1    
   101   52   53 1    
   102   52   54 1    
   103   52  113 1    
   104   53  114 1    
   105   53  115 1    
   106   53  116 1    
   107   54   55 am   BACKBONE|DICT|INTERRES
   108   54  117 1    
   109   55   56 2    
   110   55   57 1    
   111   57   58 1    
   112   57   59 1    
   113   57  118 1    
   114   58  119 1    
   115   58  120 1    
   116   58  121 1    
   117   59   60 am   BACKBONE|DICT|INTERRES
   118   59  122 1    
   119   60   61 2    
   120   60   62 1    
   121   62   63 1    
   122   62   64 1    
   123   62  123 1    
   124   63  124 1    
   125   63  125 1    
   126   63  126 1    
   127   64   65 am   BACKBONE|DICT|INTERRES
   128   64  127 1    
   129   65   66 2    
@<TRIPOS>SUBSTRUCTURE
     1 UNK         1 GROUP             0       ****    0 ROOT    
