@<TRIPOS>MOLECULE
3R135
127   129    1
SMALL
USER_CHARGES


@<TRIPOS>ATOM
      1 CA        -75.9796   21.8903  -74.6906 C.3       0 UNK        -0.1998 
      2 C         -76.7868   22.0055  -73.4067 C.2       0 UNK         0.4909 
      3 O         -76.8639   21.0493  -72.6355 O.2       0 UNK        -0.5240 
      4 N         -77.3875   23.1775  -73.1741 N.am      1 UNK        -0.4739 
      5 CA        -78.1754   23.5090  -71.9799 C.3       1 UNK         0.0864 
      6 C6        -78.2343   25.0458  -71.7770 C.3       11 UNK        -0.0881 
      7 S7        -78.9503   25.9292  -73.2135 S.3       11 UNK        -0.2682 
      8 C8        -79.7453   27.3566  -72.4204 C.3       11 UNK         0.0289 
      9 C9        -78.7967   28.5424  -72.3618 C.ar      11 UNK        -0.0687 
     10 C10       -78.9064   29.5702  -73.3027 C.ar      11 UNK        -0.0823 
     11 C11       -78.0362   30.6625  -73.2606 C.ar      11 UNK        -0.0830 
     12 C12       -77.0720   30.7362  -72.2533 C.ar      11 UNK        -0.1021 
     13 C13       -76.9258   29.6972  -71.3318 C.ar      11 UNK        -0.0753 
     14 C14       -77.8001   28.6068  -71.3827 C.ar      11 UNK        -0.0933 
     15 C15       -75.8125   29.7444  -70.2962 C.3       11 UNK         0.0166 
     16 S16       -74.2058   29.2678  -71.0172 S.3       11 UNK        -0.2615 
     17 C17       -73.5970   30.8462  -71.7145 C.3       11 UNK        -0.0865 
     18 CA        -73.6711   30.9248  -73.2700 C.3       10 UNK         0.0862 
     19 C         -73.3541   32.3498  -73.8166 C.2       10 UNK         0.5551 
     20 N         -72.7451   32.4886  -74.9883 N.am      10 UNK        -0.7319 
     21 O         -73.6899   33.3491  -73.1855 O.2       10 UNK        -0.5018 
     22 N         -72.9591   29.8350  -73.9550 N.am      10 UNK        -0.4509 
     23 C         -71.6506   29.5558  -73.8878 C.2       10 UNK         0.4899 
     24 O         -70.8383   30.1980  -73.2201 O.2       10 UNK        -0.4839 
     25 CA        -71.1798   28.3566  -74.7335 C.3       9 UNK         0.0222 
     26 CB        -69.7711   27.8513  -74.3555 C.3       9 UNK        -0.1966 
     27 N         -72.1642   27.2692  -74.7358 N.am      9 UNK        -0.4218 
     28 C         -72.5641   26.5165  -73.6981 C.2       9 UNK         0.5020 
     29 O         -72.0497   26.5452  -72.5796 O.2       9 UNK        -0.5274 
     30 CA        -73.7628   25.5790  -73.9413 C.3       8 UNK         0.0270 
     31 CB        -75.0376   26.2041  -73.3538 C.3       8 UNK        -0.1976 
     32 N         -73.9960   25.2815  -75.3568 N.am      8 UNK        -0.4313 
     33 C         -73.1849   24.5486  -76.1325 C.2       8 UNK         0.5041 
     34 O         -72.1946   23.9470  -75.7163 O.2       8 UNK        -0.5577 
     35 CA        -73.5129   24.5152  -77.6335 C.3       7 UNK         0.0284 
     36 CB        -74.4857   23.3714  -77.9548 C.3       7 UNK        -0.1958 
     37 N         -74.0631   25.7894  -78.1088 N.am      7 UNK        -0.4454 
     38 C         -73.3343   26.8999  -78.2930 C.2       7 UNK         0.5089 
     39 O         -72.1205   26.9620  -78.1000 O.2       7 UNK        -0.5125 
     40 CA        -74.0872   28.1636  -78.7428 C.3       6 UNK         0.0408 
     41 CB        -74.2757   28.1655  -80.2679 C.3       6 UNK        -0.1791 
     42 N         -75.3868   28.3280  -78.0871 N.am      6 UNK        -0.4762 
     43 C         -75.5529   28.5805  -76.7796 C.2       6 UNK         0.5007 
     44 O         -74.6202   28.6836  -75.9814 O.2       6 UNK        -0.5032 
     45 CA        -77.0106   28.6860  -76.2777 C.3       5 UNK         0.0783 
     46 C46       -77.6201   30.0839  -76.5670 C.3       11 UNK        -0.0857 
     47 S47       -76.8679   31.4566  -75.6265 S.3       11 UNK        -0.2512 
     48 C48       -78.1040   31.7490  -74.3201 C.3       11 UNK         0.0225 
     49 N         -77.8809   27.6354  -76.8261 N.am      5 UNK        -0.4615 
     50 C         -77.6622   26.3149  -76.7930 C.2       4 UNK         0.5053 
     51 O         -76.6757   25.7853  -76.2773 O.2       4 UNK        -0.5105 
     52 CA        -78.7420   25.4479  -77.4524 C.3       4 UNK         0.0263 
     53 CB        -78.2022   24.0781  -77.9006 C.3       4 UNK        -0.1981 
     54 N         -79.8342   25.2321  -76.5089 N.am      4 UNK        -0.4224 
     55 C         -81.0053   25.8903  -76.5109 C.2       3 UNK         0.4895 
     56 O         -81.2628   26.8202  -77.2842 O.2       3 UNK        -0.5091 
     57 CA        -82.0741   25.4165  -75.5044 C.3       3 UNK         0.0250 
     58 CB        -83.4971   25.4602  -76.0975 C.3       3 UNK        -0.1996 
     59 N         -81.7770   24.0674  -75.0124 N.am      3 UNK        -0.4254 
     60 C         -82.1174   23.5811  -73.8124 C.2       2 UNK         0.5004 
     61 O         -82.8281   24.1747  -73.0001 O.2       2 UNK        -0.5226 
     62 CA        -81.4891   22.2287  -73.4356 C.3       2 UNK         0.0269 
     63 CB        -81.6496   21.1658  -74.5392 C.3       2 UNK        -0.1926 
     64 N         -80.0691   22.4451  -73.1539 N.am      2 UNK        -0.4687 
     65 C         -79.5998   22.9084  -71.9862 C.2       1 UNK         0.5165 
     66 O         -80.2607   22.9229  -70.9463 O.2       1 UNK        -0.5079 
     67 H67       -76.4375   21.1649  -75.3624 H         1 UNK         0.0900 
     68 H68       -75.9157   22.8462  -75.2091 H         1 UNK         0.0900 
     69 H69       -74.9647   21.5607  -74.4693 H         1 UNK         0.0900 
     70 H70       -77.2929   23.9310  -73.8411 H         1 UNK         0.2959 
     71 H71       -77.6680   23.0792  -71.1131 H         1 UNK         0.1079 
     72 H72       -77.2326   25.4347  -71.5952 H         1 UNK         0.0837 
     73 H73       -78.8004   25.2833  -70.8745 H         1 UNK         0.0837 
     74 H74       -80.0977   27.1006  -71.4206 H         1 UNK         0.0685 
     75 H75       -80.6362   27.6164  -72.9940 H         1 UNK         0.0685 
     76 H76       -79.6579   29.5105  -74.0780 H         1 UNK         0.1434 
     77 H77       -76.4061   31.5865  -72.2146 H         1 UNK         0.1329 
     78 H78       -77.6977   27.8009  -70.6695 H         1 UNK         0.1335 
     79 H79       -76.0371   29.0591  -69.4775 H         1 UNK         0.0680 
     80 H80       -75.7523   30.7369  -69.8475 H         1 UNK         0.0680 
     81 H81       -72.5685   30.9884  -71.3803 H         1 UNK         0.1032 
     82 H82       -74.1583   31.6653  -71.2632 H         1 UNK         0.1032 
     83 H83       -74.7089   30.7629  -73.5524 H         1 UNK         0.0461 
     84 H84       -72.4842   31.6766  -75.5235 H         1 UNK         0.3453 
     85 H85       -72.5534   33.4129  -75.3408 H         1 UNK         0.3453 
     86 H86       -73.5365   29.2818  -74.5841 H         1 UNK         0.2984 
     87 H87       -71.1321   28.7139  -75.7632 H         1 UNK         0.0554 
     88 H88       -69.0245   28.6316  -74.5074 H         1 UNK         0.0847 
     89 H89       -69.4780   26.9989  -74.9681 H         1 UNK         0.0847 
     90 H90       -69.7134   27.5499  -73.3093 H         1 UNK         0.0847 
     91 H91       -72.6835   27.1656  -75.5976 H         1 UNK         0.3141 
     92 H92       -73.5656   24.6373  -73.4251 H         1 UNK         0.0743 
     93 H93       -74.9517   26.3254  -72.2733 H         1 UNK         0.0784 
     94 H94       -75.2384   27.1907  -73.7728 H         1 UNK         0.0784 
     95 H95       -75.9075   25.5811  -73.5491 H         1 UNK         0.0784 
     96 H96       -74.8424   25.6688  -75.7690 H         1 UNK         0.3213 
     97 H97       -72.5808   24.3244  -78.1705 H         1 UNK         0.0855 
     98 H98       -75.4324   23.4933  -77.4326 H         1 UNK         0.0814 
     99 H99       -74.0692   22.4100  -77.6510 H         1 UNK         0.0814 
    100 H100      -74.6933   23.3119  -79.0233 H         1 UNK         0.0814 
    101 H101      -75.0629   25.8397  -78.2401 H         1 UNK         0.3105 
    102 H102      -73.4707   29.0257  -78.4786 H         1 UNK         0.0547 
    103 H103      -74.7261   29.0970  -80.6113 H         1 UNK         0.0837 
    104 H104      -73.3169   28.0651  -80.7786 H         1 UNK         0.0837 
    105 H105      -74.9090   27.3425  -80.6011 H         1 UNK         0.0837 
    106 H106      -76.2083   28.2492  -78.6691 H         1 UNK         0.3020 
    107 H107      -76.9831   28.5338  -75.1962 H         1 UNK         0.1245 
    108 H108      -78.6897   30.0730  -76.3531 H         1 UNK         0.0781 
    109 H109      -77.5439   30.3223  -77.6296 H         1 UNK         0.0781 
    110 H110      -79.1033   31.8147  -74.7532 H         1 UNK         0.0836 
    111 H111      -77.9086   32.7196  -73.8616 H         1 UNK         0.0836 
    112 H112      -78.7412   27.9532  -77.2501 H         1 UNK         0.3022 
    113 H113      -79.1018   25.9664  -78.3439 H         1 UNK         0.0747 
    114 H114      -78.9782   23.4919  -78.3932 H         1 UNK         0.0793 
    115 H115      -77.3892   24.1973  -78.6173 H         1 UNK         0.0793 
    116 H116      -77.8258   23.4910  -77.0622 H         1 UNK         0.0793 
    117 H117      -79.6422   24.5917  -75.7484 H         1 UNK         0.3047 
    118 H118      -82.0268   26.1125  -74.6639 H         1 UNK         0.0822 
    119 H119      -83.7562   26.4664  -76.4295 H         1 UNK         0.0807 
    120 H120      -84.2448   25.1647  -75.3609 H         1 UNK         0.0807 
    121 H121      -83.5927   24.7961  -76.9573 H         1 UNK         0.0807 
    122 H122      -81.2426   23.4800  -75.6371 H         1 UNK         0.2946 
    123 H123      -81.9954   21.8638  -72.5384 H         1 UNK         0.1144 
    124 H124      -81.3004   20.1925  -74.1937 H         1 UNK         0.0793 
    125 H125      -81.0924   21.4106  -75.4437 H         1 UNK         0.0793 
    126 H126      -82.6979   21.0496  -74.8188 H         1 UNK         0.0793 
    127 H127      -79.4362   22.4458  -73.9391 H         1 UNK         0.2896 
@<TRIPOS>BOND
     1    1    2 1    
     2    1   67 1    
     3    1   68 1    
     4    1   69 1    
     5    2    3 2    
     6    2    4 am   BACKBONE|DICT|INTERRES
     7    4    5 1    
     8    4   70 1    
     9    5    6 1    
    10    5   65 1    
    11    5   71 1    
    12    6    7 1    
    13    6   72 1    
    14    6   73 1    
    15    7    8 1    
    16    8    9 1    
    17    8   74 1    
    18    8   75 1    
    19    9   10 ar   
    20    9   14 ar   
    21   10   11 ar   
    22   10   76 1    
    23   11   12 ar   
    24   11   48 1    
    25   12   13 ar   
    26   12   77 1    
    27   13   14 ar   
    28   13   15 1    
    29   14   78 1    
    30   15   16 1    
    31   15   79 1    
    32   15   80 1    
    33   16   17 1    
    34   17   18 1    
    35   17   81 1    
    36   17   82 1    
    37   18   19 1    
    38   18   22 1    
    39   18   83 1    
    40   19   20 am   BACKBONE|DICT|INTERRES
    41   19   21 2    
    42   20   84 1    
    43   20   85 1    
    44   22   23 am   BACKBONE|DICT|INTERRES
    45   22   86 1    
    46   23   24 2    
    47   23   25 1    
    48   25   26 1    
    49   25   27 1    
    50   25   87 1    
    51   26   88 1    
    52   26   89 1    
    53   26   90 1    
    54   27   28 am   BACKBONE|DICT|INTERRES
    55   27   91 1    
    56   28   29 2    
    57   28   30 1    
    58   30   31 1    
    59   30   32 1    
    60   30   92 1    
    61   31   93 1    
    62   31   94 1    
    63   31   95 1    
    64   32   33 am   BACKBONE|DICT|INTERRES
    65   32   96 1    
    66   33   34 2    
    67   33   35 1    
    68   35   36 1    
    69   35   37 1    
    70   35   97 1    
    71   36   98 1    
    72   36   99 1    
    73   36  100 1    
    74   37   38 am   BACKBONE|DICT|INTERRES
    75   37  101 1    
    76   38   39 2    
    77   38   40 1    
    78   40   41 1    
    79   40   42 1    
    80   40  102 1    
    81   41  103 1    
    82   41  104 1    
    83   41  105 1    
    84   42   43 am   BACKBONE|DICT|INTERRES
    85   42  106 1    
    86   43   44 2    
    87   43   45 1    
    88   45   46 1    
    89   45   49 1    
    90   45  107 1    
    91   46   47 1    
    92   46  108 1    
    93   46  109 1    
    94   47   48 1    
    95   48  110 1    
    96   48  111 1    
    97   49   50 am   BACKBONE|DICT|INTERRES
    98   49  112 1    
    99   50   51 2    
   100   50   52 1    
   101   52   53 1    
   102   52   54 1    
   103   52  113 1    
   104   53  114 1    
   105   53  115 1    
   106   53  116 1    
   107   54   55 am   BACKBONE|DICT|INTERRES
   108   54  117 1    
   109   55   56 2    
   110   55   57 1    
   111   57   58 1    
   112   57   59 1    
   113   57  118 1    
   114   58  119 1    
   115   58  120 1    
   116   58  121 1    
   117   59   60 am   BACKBONE|DICT|INTERRES
   118   59  122 1    
   119   60   61 2    
   120   60   62 1    
   121   62   63 1    
   122   62   64 1    
   123   62  123 1    
   124   63  124 1    
   125   63  125 1    
   126   63  126 1    
   127   64   65 am   BACKBONE|DICT|INTERRES
   128   64  127 1    
   129   65   66 2    
@<TRIPOS>SUBSTRUCTURE
     1 UNK         1 GROUP             0       ****    0 ROOT    
