@<TRIPOS>MOLECULE
3R135
127   129    1
SMALL
USER_CHARGES


@<TRIPOS>ATOM
      1 CA        -86.3313   28.8422  -74.8340 C.3       0 UNK        -0.1998 
      2 C         -84.9209   28.2840  -74.9537 C.2       0 UNK         0.4909 
      3 O         -84.5695   27.7270  -75.9947 O.2       0 UNK        -0.5240 
      4 N         -84.1084   28.4374  -73.9004 N.am      1 UNK        -0.4739 
      5 CA        -82.7402   27.9148  -73.8188 C.3       1 UNK         0.0864 
      6 C6        -81.9209   28.6278  -72.7109 C.3       11 UNK        -0.0881 
      7 S7        -81.1827   30.1757  -73.3322 S.3       11 UNK        -0.2682 
      8 C8        -79.6325   29.5632  -74.0758 C.3       11 UNK         0.0289 
      9 C9        -78.5010   29.4756  -73.0615 C.ar      11 UNK        -0.0687 
     10 C10       -78.3330   28.3286  -72.2794 C.ar      11 UNK        -0.0823 
     11 C11       -77.3082   28.2584  -71.3319 C.ar      11 UNK        -0.0830 
     12 C12       -76.4330   29.3374  -71.1849 C.ar      11 UNK        -0.1021 
     13 C13       -76.5663   30.4755  -71.9856 C.ar      11 UNK        -0.0753 
     14 C14       -77.6084   30.5423  -72.9155 C.ar      11 UNK        -0.0933 
     15 C15       -75.5906   31.6353  -71.8427 C.3       11 UNK         0.0166 
     16 S16       -74.1295   31.4205  -72.9102 S.3       11 UNK        -0.2615 
     17 C17       -73.2407   30.0840  -72.0388 C.3       11 UNK        -0.0865 
     18 CA        -71.7027   30.1606  -72.2180 C.3       10 UNK         0.0862 
     19 C         -70.9916   29.1608  -71.2565 C.2       10 UNK         0.5551 
     20 N         -70.2860   28.1476  -71.7445 N.am      10 UNK        -0.7319 
     21 O         -71.0806   29.3143  -70.0409 O.2       10 UNK        -0.5018 
     22 N         -71.3228   30.0335  -73.6343 N.am      10 UNK        -0.4509 
     23 C         -70.1313   30.3430  -74.1569 C.2       10 UNK         0.4899 
     24 O         -69.2092   30.8405  -73.5086 O.2       10 UNK        -0.4839 
     25 CA        -69.9360   30.0003  -75.6487 C.3       9 UNK         0.0222 
     26 CB        -68.5405   30.3926  -76.1703 C.3       9 UNK        -0.1966 
     27 N         -70.1584   28.5724  -75.9067 N.am      9 UNK        -0.4218 
     28 C         -71.3583   27.9867  -76.0106 C.2       9 UNK         0.5020 
     29 O         -72.4229   28.6030  -75.9230 O.2       9 UNK        -0.5274 
     30 CA        -71.3606   26.4598  -76.1637 C.3       8 UNK         0.0270 
     31 CB        -71.2448   25.7846  -74.7860 C.3       8 UNK        -0.1976 
     32 N         -72.6012   26.0222  -76.8021 N.am      8 UNK        -0.4313 
     33 C         -72.7393   25.8008  -78.1163 C.2       8 UNK         0.5041 
     34 O         -71.8086   25.8835  -78.9201 O.2       8 UNK        -0.5577 
     35 CA        -74.1327   25.4035  -78.6426 C.3       7 UNK         0.0284 
     36 CB        -74.1882   23.8905  -78.9115 C.3       7 UNK        -0.1958 
     37 N         -75.2342   25.7697  -77.7510 N.am      7 UNK        -0.4454 
     38 C         -75.6378   27.0223  -77.4987 C.2       7 UNK         0.5089 
     39 O         -75.1844   28.0151  -78.0681 O.2       7 UNK        -0.5125 
     40 CA        -76.7291   27.1995  -76.4264 C.3       6 UNK         0.0408 
     41 CB        -78.1121   27.2688  -77.0928 C.3       6 UNK        -0.1791 
     42 N         -76.7422   26.1452  -75.4063 N.am      6 UNK        -0.4762 
     43 C         -75.7360   25.8510  -74.5677 C.2       6 UNK         0.5007 
     44 O         -74.6509   26.4299  -74.5734 O.2       6 UNK        -0.5032 
     45 CA        -75.9546   24.6578  -73.6187 C.3       5 UNK         0.0783 
     46 C46       -76.8351   25.0165  -72.3988 C.3       11 UNK        -0.0857 
     47 S47       -75.8991   25.8825  -71.0967 S.3       11 UNK        -0.2512 
     48 C48       -77.1531   27.0298  -70.4484 C.3       11 UNK         0.0225 
     49 N         -76.5131   23.5252  -74.3554 N.am      5 UNK        -0.4615 
     50 C         -75.7916   22.6596  -75.0778 C.2       4 UNK         0.5053 
     51 O         -74.5645   22.6950  -75.1646 O.2       4 UNK        -0.5105 
     52 CA        -76.5685   21.5687  -75.8359 C.3       4 UNK         0.0263 
     53 CB        -76.6516   20.2859  -74.9934 C.3       4 UNK        -0.1981 
     54 N         -77.9205   21.9809  -76.2256 N.am      4 UNK        -0.4224 
     55 C         -78.1855   22.9254  -77.1382 C.2       3 UNK         0.4895 
     56 O         -77.3200   23.5509  -77.7497 O.2       3 UNK        -0.5091 
     57 CA        -79.6672   23.2551  -77.3805 C.3       3 UNK         0.0250 
     58 CB        -80.2981   22.2322  -78.3391 C.3       3 UNK        -0.1996 
     59 N         -80.4827   23.3595  -76.1623 N.am      3 UNK        -0.4254 
     60 C         -80.2361   24.1975  -75.1464 C.2       2 UNK         0.5004 
     61 O         -79.2098   24.8728  -75.0404 O.2       2 UNK        -0.5226 
     62 CA        -81.3193   24.3565  -74.0791 C.3       2 UNK         0.0269 
     63 CB        -80.8497   23.8171  -72.7167 C.3       2 UNK        -0.1926 
     64 N         -81.5703   25.7896  -73.9992 N.am      2 UNK        -0.4687 
     65 C         -82.7147   26.3809  -73.6444 C.2       1 UNK         0.5165 
     66 O         -83.6935   25.7762  -73.1984 O.2       1 UNK        -0.5079 
     67 H67       -86.5002   29.3207  -73.8694 H         1 UNK         0.0900 
     68 H68       -87.0619   28.0418  -74.9480 H         1 UNK         0.0900 
     69 H69       -86.5099   29.5812  -75.6147 H         1 UNK         0.0900 
     70 H70       -84.4574   28.8869  -73.0662 H         1 UNK         0.2959 
     71 H71       -82.2667   28.1083  -74.7846 H         1 UNK         0.1079 
     72 H72       -82.5501   28.8581  -71.8494 H         1 UNK         0.0837 
     73 H73       -81.1257   27.9989  -72.3146 H         1 UNK         0.0837 
     74 H74       -79.8002   28.5893  -74.5351 H         1 UNK         0.0685 
     75 H75       -79.3482   30.2330  -74.8889 H         1 UNK         0.0685 
     76 H76       -79.0023   27.4903  -72.4005 H         1 UNK         0.1434 
     77 H77       -75.6408   29.2833  -70.4515 H         1 UNK         0.1329 
     78 H78       -77.7229   31.4259  -73.5286 H         1 UNK         0.1335 
     79 H79       -76.0849   32.5699  -72.1124 H         1 UNK         0.0680 
     80 H80       -75.2799   31.7484  -70.8029 H         1 UNK         0.0680 
     81 H81       -73.6223   29.1227  -72.3902 H         1 UNK         0.1032 
     82 H82       -73.4915   30.1435  -70.9784 H         1 UNK         0.1032 
     83 H83       -71.3847   31.1534  -71.8938 H         1 UNK         0.0461 
     84 H84       -69.8289   27.5126  -71.1093 H         1 UNK         0.3453 
     85 H85       -70.1942   28.0256  -72.7385 H         1 UNK         0.3453 
     86 H86       -72.0137   29.6191  -74.2529 H         1 UNK         0.2984 
     87 H87       -70.6717   30.5794  -76.2110 H         1 UNK         0.0554 
     88 H88       -68.4432   30.1885  -77.2368 H         1 UNK         0.0847 
     89 H89       -67.7466   29.8541  -75.6511 H         1 UNK         0.0847 
     90 H90       -68.3566   31.4587  -76.0299 H         1 UNK         0.0847 
     91 H91       -69.3321   27.9928  -75.9540 H         1 UNK         0.3141 
     92 H92       -70.5019   26.1615  -76.7691 H         1 UNK         0.0743 
     93 H93       -72.0314   26.1125  -74.1051 H         1 UNK         0.0784 
     94 H94       -71.3087   24.6994  -74.8701 H         1 UNK         0.0784 
     95 H95       -70.2892   26.0156  -74.3142 H         1 UNK         0.0784 
     96 H96       -73.4287   26.0456  -76.2142 H         1 UNK         0.3213 
     97 H97       -74.2807   25.9250  -79.5906 H         1 UNK         0.0855 
     98 H98       -74.0939   23.3141  -77.9902 H         1 UNK         0.0814 
     99 H99       -73.3809   23.5798  -79.5761 H         1 UNK         0.0814 
    100 H100      -75.1256   23.6070  -79.3904 H         1 UNK         0.0814 
    101 H101      -75.7375   25.0096  -77.3083 H         1 UNK         0.3105 
    102 H102      -76.5424   28.1460  -75.9148 H         1 UNK         0.0547 
    103 H103      -78.1599   28.0892  -77.8100 H         1 UNK         0.0837 
    104 H104      -78.3419   26.3491  -77.6319 H         1 UNK         0.0837 
    105 H105      -78.9022   27.4298  -76.3615 H         1 UNK         0.0837 
    106 H106      -77.6087   25.6142  -75.3239 H         1 UNK         0.3020 
    107 H107      -74.9707   24.3592  -73.2472 H         1 UNK         0.1245 
    108 H108      -77.2258   24.1062  -71.9409 H         1 UNK         0.0781 
    109 H109      -77.7105   25.5906  -72.7021 H         1 UNK         0.0781 
    110 H110      -76.8567   27.3400  -69.4452 H         1 UNK         0.0836 
    111 H111      -78.1059   26.5105  -70.3323 H         1 UNK         0.0836 
    112 H112      -77.5215   23.4689  -74.3943 H         1 UNK         0.3022 
    113 H113      -76.0097   21.3441  -76.7473 H         1 UNK         0.0747 
    114 H114      -77.1266   19.4764  -75.5480 H         1 UNK         0.0793 
    115 H115      -75.6561   19.9408  -74.7098 H         1 UNK         0.0793 
    116 H116      -77.2167   20.4414  -74.0734 H         1 UNK         0.0793 
    117 H117      -78.6944   21.5220  -75.7671 H         1 UNK         0.3047 
    118 H118      -79.6984   24.2318  -77.8678 H         1 UNK         0.0822 
    119 H119      -81.3081   22.5263  -78.6254 H         1 UNK         0.0807 
    120 H120      -80.3510   21.2376  -77.8944 H         1 UNK         0.0807 
    121 H121      -79.7162   22.1477  -79.2583 H         1 UNK         0.0807 
    122 H122      -81.3474   22.8374  -76.1601 H         1 UNK         0.2946 
    123 H123      -82.2284   23.8368  -74.3907 H         1 UNK         0.1144 
    124 H124      -81.6194   23.9443  -71.9552 H         1 UNK         0.0793 
    125 H125      -79.9500   24.3251  -72.3679 H         1 UNK         0.0793 
    126 H126      -80.6239   22.7517  -72.7750 H         1 UNK         0.0793 
    127 H127      -80.8097   26.3473  -74.3655 H         1 UNK         0.2896 
@<TRIPOS>BOND
     1    1    2 1    
     2    1   67 1    
     3    1   68 1    
     4    1   69 1    
     5    2    3 2    
     6    2    4 am   BACKBONE|DICT|INTERRES
     7    4    5 1    
     8    4   70 1    
     9    5    6 1    
    10    5   65 1    
    11    5   71 1    
    12    6    7 1    
    13    6   72 1    
    14    6   73 1    
    15    7    8 1    
    16    8    9 1    
    17    8   74 1    
    18    8   75 1    
    19    9   10 ar   
    20    9   14 ar   
    21   10   11 ar   
    22   10   76 1    
    23   11   12 ar   
    24   11   48 1    
    25   12   13 ar   
    26   12   77 1    
    27   13   14 ar   
    28   13   15 1    
    29   14   78 1    
    30   15   16 1    
    31   15   79 1    
    32   15   80 1    
    33   16   17 1    
    34   17   18 1    
    35   17   81 1    
    36   17   82 1    
    37   18   19 1    
    38   18   22 1    
    39   18   83 1    
    40   19   20 am   BACKBONE|DICT|INTERRES
    41   19   21 2    
    42   20   84 1    
    43   20   85 1    
    44   22   23 am   BACKBONE|DICT|INTERRES
    45   22   86 1    
    46   23   24 2    
    47   23   25 1    
    48   25   26 1    
    49   25   27 1    
    50   25   87 1    
    51   26   88 1    
    52   26   89 1    
    53   26   90 1    
    54   27   28 am   BACKBONE|DICT|INTERRES
    55   27   91 1    
    56   28   29 2    
    57   28   30 1    
    58   30   31 1    
    59   30   32 1    
    60   30   92 1    
    61   31   93 1    
    62   31   94 1    
    63   31   95 1    
    64   32   33 am   BACKBONE|DICT|INTERRES
    65   32   96 1    
    66   33   34 2    
    67   33   35 1    
    68   35   36 1    
    69   35   37 1    
    70   35   97 1    
    71   36   98 1    
    72   36   99 1    
    73   36  100 1    
    74   37   38 am   BACKBONE|DICT|INTERRES
    75   37  101 1    
    76   38   39 2    
    77   38   40 1    
    78   40   41 1    
    79   40   42 1    
    80   40  102 1    
    81   41  103 1    
    82   41  104 1    
    83   41  105 1    
    84   42   43 am   BACKBONE|DICT|INTERRES
    85   42  106 1    
    86   43   44 2    
    87   43   45 1    
    88   45   46 1    
    89   45   49 1    
    90   45  107 1    
    91   46   47 1    
    92   46  108 1    
    93   46  109 1    
    94   47   48 1    
    95   48  110 1    
    96   48  111 1    
    97   49   50 am   BACKBONE|DICT|INTERRES
    98   49  112 1    
    99   50   51 2    
   100   50   52 1    
   101   52   53 1    
   102   52   54 1    
   103   52  113 1    
   104   53  114 1    
   105   53  115 1    
   106   53  116 1    
   107   54   55 am   BACKBONE|DICT|INTERRES
   108   54  117 1    
   109   55   56 2    
   110   55   57 1    
   111   57   58 1    
   112   57   59 1    
   113   57  118 1    
   114   58  119 1    
   115   58  120 1    
   116   58  121 1    
   117   59   60 am   BACKBONE|DICT|INTERRES
   118   59  122 1    
   119   60   61 2    
   120   60   62 1    
   121   62   63 1    
   122   62   64 1    
   123   62  123 1    
   124   63  124 1    
   125   63  125 1    
   126   63  126 1    
   127   64   65 am   BACKBONE|DICT|INTERRES
   128   64  127 1    
   129   65   66 2    
@<TRIPOS>SUBSTRUCTURE
     1 UNK         1 GROUP             0       ****    0 ROOT    
