@<TRIPOS>MOLECULE
3R135
127   129    1
SMALL
USER_CHARGES


@<TRIPOS>ATOM
      1 CA        -84.7431   24.6169  -70.6506 C.3       0 UNK        -0.1998 
      2 C         -84.1032   25.2249  -71.8895 C.2       0 UNK         0.4909 
      3 O         -84.7397   25.2847  -72.9418 O.2       0 UNK        -0.5240 
      4 N         -82.8470   25.6746  -71.7744 N.am      1 UNK        -0.4739 
      5 CA        -82.0626   26.2710  -72.8647 C.3       1 UNK         0.0864 
      6 C6        -80.9545   27.2125  -72.3326 C.3       11 UNK        -0.0881 
      7 S7        -79.8398   26.4525  -71.0986 S.3       11 UNK        -0.2682 
      8 C8        -79.2612   27.9254  -70.1956 C.3       11 UNK         0.0289 
      9 C9        -78.2718   28.7365  -71.0204 C.ar      11 UNK        -0.0687 
     10 C10       -78.7301   29.6854  -71.9399 C.ar      11 UNK        -0.0823 
     11 C11       -77.8284   30.4092  -72.7237 C.ar      11 UNK        -0.0830 
     12 C12       -76.4572   30.2011  -72.5610 C.ar      11 UNK        -0.1021 
     13 C13       -75.9844   29.2732  -71.6283 C.ar      11 UNK        -0.0753 
     14 C14       -76.8961   28.5373  -70.8658 C.ar      11 UNK        -0.0933 
     15 C15       -74.4891   29.0515  -71.4734 C.3       11 UNK         0.0166 
     16 S16       -73.6337   30.5768  -70.9632 S.3       11 UNK        -0.2615 
     17 C17       -72.0422   30.3206  -71.8071 C.3       11 UNK        -0.0865 
     18 CA        -72.1424   30.5884  -73.3457 C.3       10 UNK         0.0862 
     19 C         -71.4279   31.8955  -73.8048 C.2       10 UNK         0.5551 
     20 N         -70.8325   31.9380  -74.9901 N.am      10 UNK        -0.7319 
     21 O         -71.4408   32.8982  -73.0949 O.2       10 UNK        -0.5018 
     22 N         -71.8325   29.3868  -74.1381 N.am      10 UNK        -0.4509 
     23 C         -70.6596   28.7388  -74.1446 C.2       10 UNK         0.4899 
     24 O         -69.6667   29.1137  -73.5188 O.2       10 UNK        -0.4839 
     25 CA        -70.5967   27.4509  -74.9852 C.3       9 UNK         0.0222 
     26 CB        -69.3479   26.5942  -74.6875 C.3       9 UNK        -0.1966 
     27 N         -71.8162   26.6401  -74.8892 N.am      9 UNK        -0.4218 
     28 C         -72.3535   26.0755  -73.7941 C.2       9 UNK         0.5020 
     29 O         -71.8781   26.1861  -72.6633 O.2       9 UNK        -0.5274 
     30 CA        -73.6406   25.2400  -73.9759 C.3       8 UNK         0.0270 
     31 CB        -74.8236   25.8767  -73.2260 C.3       8 UNK        -0.1976 
     32 N         -74.0268   25.0451  -75.3751 N.am      8 UNK        -0.4313 
     33 C         -73.4021   24.2496  -76.2537 C.2       8 UNK         0.5041 
     34 O         -72.4835   23.4854  -75.9582 O.2       8 UNK        -0.5577 
     35 CA        -73.8369   24.3845  -77.7228 C.3       7 UNK         0.0284 
     36 CB        -75.0334   23.4709  -78.0290 C.3       7 UNK        -0.1958 
     37 N         -74.1618   25.7717  -78.0769 N.am      7 UNK        -0.4454 
     38 C         -73.2594   26.7597  -78.1720 C.2       7 UNK         0.5089 
     39 O         -72.0516   26.5979  -78.0067 O.2       7 UNK        -0.5125 
     40 CA        -73.7935   28.1729  -78.4564 C.3       6 UNK         0.0408 
     41 CB        -73.9655   28.3902  -79.9677 C.3       6 UNK        -0.1791 
     42 N         -75.0600   28.4437  -77.7741 N.am      6 UNK        -0.4762 
     43 C         -75.1940   28.6347  -76.4523 C.2       6 UNK         0.5007 
     44 O         -74.2488   28.6496  -75.6610 O.2       6 UNK        -0.5032 
     45 CA        -76.6383   28.8056  -75.9324 C.3       5 UNK         0.0783 
     46 C46       -77.0567   30.2948  -76.0142 C.3       11 UNK        -0.0857 
     47 S47       -78.7223   30.6066  -75.3341 S.3       11 UNK        -0.2512 
     48 C48       -78.3393   31.4119  -73.7463 C.3       11 UNK         0.0225 
     49 N         -77.5897   27.9241  -76.6277 N.am      5 UNK        -0.4615 
     50 C         -77.5291   26.5872  -76.6316 C.2       4 UNK         0.5053 
     51 O         -76.6524   25.9411  -76.0515 O.2       4 UNK        -0.5105 
     52 CA        -78.5689   25.8487  -77.4815 C.3       4 UNK         0.0263 
     53 CB        -78.1830   25.9208  -78.9741 C.3       4 UNK        -0.1981 
     54 N         -78.6107   24.4646  -77.0188 N.am      4 UNK        -0.4224 
     55 C         -79.4578   23.5016  -77.3991 C.2       3 UNK         0.4895 
     56 O         -80.3459   23.6487  -78.2383 O.2       3 UNK        -0.5091 
     57 CA        -79.3062   22.1376  -76.7001 C.3       3 UNK         0.0250 
     58 CB        -78.3175   21.2478  -77.4703 C.3       3 UNK        -0.1996 
     59 N         -78.8564   22.2688  -75.3089 N.am      3 UNK        -0.4254 
     60 C         -79.5820   22.6655  -74.2515 C.2       2 UNK         0.5004 
     61 O         -79.0625   22.8298  -73.1475 O.2       2 UNK        -0.5226 
     62 CA        -81.1101   22.8452  -74.3828 C.3       2 UNK         0.0269 
     63 CB        -81.8359   21.5531  -73.9735 C.3       2 UNK        -0.1926 
     64 N         -81.5854   23.9405  -73.5395 N.am      2 UNK        -0.4687 
     65 C         -81.5077   25.2369  -73.8699 C.2       1 UNK         0.5165 
     66 O         -81.0397   25.6336  -74.9382 O.2       1 UNK        -0.5079 
     67 H67       -85.6382   25.1756  -70.3785 H         1 UNK         0.0900 
     68 H68       -85.0316   23.5845  -70.8455 H         1 UNK         0.0900 
     69 H69       -84.0662   24.6246  -69.7965 H         1 UNK         0.0900 
     70 H70       -82.3626   25.6003  -70.8901 H         1 UNK         0.2959 
     71 H71       -82.7434   26.8932  -73.4508 H         1 UNK         0.1079 
     72 H72       -81.4337   28.0789  -71.8750 H         1 UNK         0.0837 
     73 H73       -80.3533   27.6079  -73.1542 H         1 UNK         0.0837 
     74 H74       -80.1119   28.5437  -69.9050 H         1 UNK         0.0685 
     75 H75       -78.7925   27.6016  -69.2651 H         1 UNK         0.0685 
     76 H76       -79.7915   29.8500  -72.0609 H         1 UNK         0.1434 
     77 H77       -75.7516   30.7617  -73.1582 H         1 UNK         0.1329 
     78 H78       -76.5372   27.8051  -70.1554 H         1 UNK         0.1335 
     79 H79       -74.0969   28.7032  -72.4292 H         1 UNK         0.0680 
     80 H80       -74.2758   28.2650  -70.7479 H         1 UNK         0.0680 
     81 H81       -71.7183   29.3005  -71.5942 H         1 UNK         0.1032 
     82 H82       -71.2916   30.9528  -71.3295 H         1 UNK         0.1032 
     83 H83       -73.1854   30.7830  -73.5960 H         1 UNK         0.0461 
     84 H84       -70.8251   31.1250  -75.5844 H         1 UNK         0.3453 
     85 H85       -70.3817   32.7885  -75.2877 H         1 UNK         0.3453 
     86 H86       -72.5995   29.0243  -74.6990 H         1 UNK         0.2984 
     87 H87       -70.5300   27.7752  -76.0244 H         1 UNK         0.0554 
     88 H88       -68.4327   27.1547  -74.8817 H         1 UNK         0.0847 
     89 H89       -69.3201   25.7037  -75.3154 H         1 UNK         0.0847 
     90 H90       -69.3168   26.2721  -73.6462 H         1 UNK         0.0847 
     91 H91       -72.2926   26.4908  -75.7689 H         1 UNK         0.3141 
     92 H92       -73.4483   24.2589  -73.5370 H         1 UNK         0.0743 
     93 H93       -75.7124   25.2475  -73.2804 H         1 UNK         0.0784 
     94 H94       -74.5925   26.0170  -72.1694 H         1 UNK         0.0784 
     95 H95       -75.0836   26.8513  -73.6390 H         1 UNK         0.0784 
     96 H96       -74.8403   25.5678  -75.6934 H         1 UNK         0.3213 
     97 H97       -72.9986   24.0649  -78.3462 H         1 UNK         0.0855 
     98 H98       -75.9038   23.7307  -77.4287 H         1 UNK         0.0814 
     99 H99       -74.7899   22.4294  -77.8144 H         1 UNK         0.0814 
    100 H100      -75.3191   23.5255  -79.0795 H         1 UNK         0.0814 
    101 H101      -75.1377   26.0008  -78.1864 H         1 UNK         0.3105 
    102 H102      -73.0518   28.8881  -78.0936 H         1 UNK         0.0547 
    103 H103      -73.0271   28.2136  -80.4954 H         1 UNK         0.0837 
    104 H104      -74.7101   27.7170  -80.3946 H         1 UNK         0.0837 
    105 H105      -74.2707   29.4129  -80.1893 H         1 UNK         0.0837 
    106 H106      -75.8925   28.4642  -78.3453 H         1 UNK         0.3020 
    107 H107      -76.6324   28.5061  -74.8819 H         1 UNK         0.1245 
    108 H108      -76.3329   30.9286  -75.4989 H         1 UNK         0.0781 
    109 H109      -77.0576   30.6329  -77.0523 H         1 UNK         0.0781 
    110 H110      -79.2441   31.8912  -73.3694 H         1 UNK         0.0836 
    111 H111      -77.6159   32.2145  -73.8985 H         1 UNK         0.0836 
    112 H112      -78.3470   28.3854  -77.1112 H         1 UNK         0.3022 
    113 H113      -79.5480   26.3041  -77.3201 H         1 UNK         0.0747 
    114 H114      -78.0813   26.9538  -79.3086 H         1 UNK         0.0793 
    115 H115      -77.2369   25.4164  -79.1719 H         1 UNK         0.0793 
    116 H116      -78.9411   25.4603  -79.6072 H         1 UNK         0.0793 
    117 H117      -77.9320   24.2715  -76.2922 H         1 UNK         0.3047 
    118 H118      -80.2739   21.6332  -76.7211 H         1 UNK         0.0822 
    119 H119      -78.2637   20.2488  -77.0368 H         1 UNK         0.0807 
    120 H120      -77.3106   21.6644  -77.4752 H         1 UNK         0.0807 
    121 H121      -78.6262   21.1308  -78.5103 H         1 UNK         0.0807 
    122 H122      -77.8737   22.0978  -75.1539 H         1 UNK         0.2946 
    123 H123      -81.3907   23.0843  -75.4083 H         1 UNK         0.1144 
    124 H124      -82.9170   21.6572  -74.0691 H         1 UNK         0.0793 
    125 H125      -81.6152   21.2746  -72.9420 H         1 UNK         0.0793 
    126 H126      -81.5345   20.7180  -74.6073 H         1 UNK         0.0793 
    127 H127      -81.9388   23.7000  -72.6253 H         1 UNK         0.2896 
@<TRIPOS>BOND
     1    1    2 1    
     2    1   67 1    
     3    1   68 1    
     4    1   69 1    
     5    2    3 2    
     6    2    4 am   BACKBONE|DICT|INTERRES
     7    4    5 1    
     8    4   70 1    
     9    5    6 1    
    10    5   65 1    
    11    5   71 1    
    12    6    7 1    
    13    6   72 1    
    14    6   73 1    
    15    7    8 1    
    16    8    9 1    
    17    8   74 1    
    18    8   75 1    
    19    9   10 ar   
    20    9   14 ar   
    21   10   11 ar   
    22   10   76 1    
    23   11   12 ar   
    24   11   48 1    
    25   12   13 ar   
    26   12   77 1    
    27   13   14 ar   
    28   13   15 1    
    29   14   78 1    
    30   15   16 1    
    31   15   79 1    
    32   15   80 1    
    33   16   17 1    
    34   17   18 1    
    35   17   81 1    
    36   17   82 1    
    37   18   19 1    
    38   18   22 1    
    39   18   83 1    
    40   19   20 am   BACKBONE|DICT|INTERRES
    41   19   21 2    
    42   20   84 1    
    43   20   85 1    
    44   22   23 am   BACKBONE|DICT|INTERRES
    45   22   86 1    
    46   23   24 2    
    47   23   25 1    
    48   25   26 1    
    49   25   27 1    
    50   25   87 1    
    51   26   88 1    
    52   26   89 1    
    53   26   90 1    
    54   27   28 am   BACKBONE|DICT|INTERRES
    55   27   91 1    
    56   28   29 2    
    57   28   30 1    
    58   30   31 1    
    59   30   32 1    
    60   30   92 1    
    61   31   93 1    
    62   31   94 1    
    63   31   95 1    
    64   32   33 am   BACKBONE|DICT|INTERRES
    65   32   96 1    
    66   33   34 2    
    67   33   35 1    
    68   35   36 1    
    69   35   37 1    
    70   35   97 1    
    71   36   98 1    
    72   36   99 1    
    73   36  100 1    
    74   37   38 am   BACKBONE|DICT|INTERRES
    75   37  101 1    
    76   38   39 2    
    77   38   40 1    
    78   40   41 1    
    79   40   42 1    
    80   40  102 1    
    81   41  103 1    
    82   41  104 1    
    83   41  105 1    
    84   42   43 am   BACKBONE|DICT|INTERRES
    85   42  106 1    
    86   43   44 2    
    87   43   45 1    
    88   45   46 1    
    89   45   49 1    
    90   45  107 1    
    91   46   47 1    
    92   46  108 1    
    93   46  109 1    
    94   47   48 1    
    95   48  110 1    
    96   48  111 1    
    97   49   50 am   BACKBONE|DICT|INTERRES
    98   49  112 1    
    99   50   51 2    
   100   50   52 1    
   101   52   53 1    
   102   52   54 1    
   103   52  113 1    
   104   53  114 1    
   105   53  115 1    
   106   53  116 1    
   107   54   55 am   BACKBONE|DICT|INTERRES
   108   54  117 1    
   109   55   56 2    
   110   55   57 1    
   111   57   58 1    
   112   57   59 1    
   113   57  118 1    
   114   58  119 1    
   115   58  120 1    
   116   58  121 1    
   117   59   60 am   BACKBONE|DICT|INTERRES
   118   59  122 1    
   119   60   61 2    
   120   60   62 1    
   121   62   63 1    
   122   62   64 1    
   123   62  123 1    
   124   63  124 1    
   125   63  125 1    
   126   63  126 1    
   127   64   65 am   BACKBONE|DICT|INTERRES
   128   64  127 1    
   129   65   66 2    
@<TRIPOS>SUBSTRUCTURE
     1 UNK         1 GROUP             0       ****    0 ROOT    
