@<TRIPOS>MOLECULE
3R135
127   129    1
SMALL
USER_CHARGES


@<TRIPOS>ATOM
      1 CA        -80.9317   22.2473  -72.3596 C.3       0 UNK        -0.1998 
      2 C         -81.6336   23.5932  -72.4513 C.2       0 UNK         0.4909 
      3 O         -82.7437   23.7477  -71.9409 O.2       0 UNK        -0.5240 
      4 N         -81.0067   24.5651  -73.1213 N.am      1 UNK        -0.4739 
      5 CA        -81.5146   25.9217  -73.3384 C.3       1 UNK         0.0864 
      6 C6        -80.3590   26.9392  -73.5143 C.3       11 UNK        -0.0881 
      7 S7        -79.2976   27.0362  -72.0327 S.3       11 UNK        -0.2682 
      8 C8        -78.8264   28.7930  -72.0298 C.3       11 UNK         0.0289 
      9 C9        -77.6039   29.0409  -72.8997 C.ar      11 UNK        -0.0687 
     10 C10       -77.7383   29.2591  -74.2751 C.ar      11 UNK        -0.0823 
     11 C11       -76.6094   29.4911  -75.0680 C.ar      11 UNK        -0.0830 
     12 C12       -75.3454   29.5264  -74.4709 C.ar      11 UNK        -0.1021 
     13 C13       -75.2008   29.3220  -73.0970 C.ar      11 UNK        -0.0753 
     14 C14       -76.3327   29.0698  -72.3181 C.ar      11 UNK        -0.0933 
     15 C15       -73.8249   29.3931  -72.4542 C.3       11 UNK         0.0166 
     16 S16       -73.6080   30.9666  -71.5662 S.3       11 UNK        -0.2615 
     17 C17       -71.8126   30.9581  -71.2294 C.3       11 UNK        -0.0865 
     18 CA        -71.0564   32.0857  -71.9953 C.3       10 UNK         0.0862 
     19 C         -69.5647   32.2144  -71.5566 C.2       10 UNK         0.5551 
     20 N         -68.6485   32.5943  -72.4387 N.am      10 UNK        -0.7319 
     21 O         -69.2351   32.0018  -70.3919 O.2       10 UNK        -0.5018 
     22 N         -71.2784   32.0411  -73.4543 N.am      10 UNK        -0.4509 
     23 C         -70.9108   31.0480  -74.2728 C.2       10 UNK         0.4899 
     24 O         -70.2737   30.0591  -73.9049 O.2       10 UNK        -0.4839 
     25 CA        -71.3783   31.1866  -75.7336 C.3       9 UNK         0.0222 
     26 CB        -70.6542   32.3331  -76.4710 C.3       9 UNK        -0.1966 
     27 N         -71.2940   29.9122  -76.4571 N.am      9 UNK        -0.4218 
     28 C         -70.2113   29.2712  -76.9194 C.2       9 UNK         0.5020 
     29 O         -69.0756   29.7482  -76.9714 O.2       9 UNK        -0.5274 
     30 CA        -70.4535   27.8118  -77.3537 C.3       8 UNK         0.0270 
     31 CB        -69.2851   27.2341  -78.1749 C.3       8 UNK        -0.1976 
     32 N         -70.6873   26.9550  -76.1868 N.am      8 UNK        -0.4313 
     33 C         -71.8068   26.9440  -75.4531 C.2       8 UNK         0.5041 
     34 O         -72.8094   27.6146  -75.7230 O.2       8 UNK        -0.5577 
     35 CA        -71.7977   26.0655  -74.1982 C.3       7 UNK         0.0284 
     36 CB        -70.9486   26.6952  -73.0772 C.3       7 UNK        -0.1958 
     37 N         -73.1776   25.9076  -73.7570 N.am      7 UNK        -0.4454 
     38 C         -73.6522   24.9282  -72.9819 C.2       7 UNK         0.5089 
     39 O         -72.9479   24.0558  -72.4721 O.2       7 UNK        -0.5125 
     40 CA        -75.1721   24.9057  -72.7360 C.3       6 UNK         0.0408 
     41 CB        -75.5054   25.5334  -71.3735 C.3       6 UNK        -0.1791 
     42 N         -75.9551   25.5753  -73.7803 N.am      6 UNK        -0.4762 
     43 C         -76.1069   25.1138  -75.0304 C.2       6 UNK         0.5007 
     44 O         -75.5512   24.1014  -75.4637 O.2       6 UNK        -0.5032 
     45 CA        -77.0309   25.9320  -75.9527 C.3       5 UNK         0.0783 
     46 C46       -76.2223   26.9226  -76.8237 C.3       11 UNK        -0.0857 
     47 S47       -77.3172   28.2318  -77.4695 S.3       11 UNK        -0.2512 
     48 C48       -76.7432   29.7133  -76.5705 C.3       11 UNK         0.0225 
     49 N         -77.8677   25.0596  -76.7835 N.am      5 UNK        -0.4615 
     50 C         -78.7944   24.2121  -76.3253 C.2       4 UNK         0.5053 
     51 O         -79.1010   24.0969  -75.1358 O.2       4 UNK        -0.5105 
     52 CA        -79.4733   23.3213  -77.3709 C.3       4 UNK         0.0263 
     53 CB        -78.5717   22.1147  -77.7042 C.3       4 UNK        -0.1981 
     54 N         -80.7566   22.8748  -76.8349 N.am      4 UNK        -0.4224 
     55 C         -81.7214   22.2388  -77.5101 C.2       3 UNK         0.4895 
     56 O         -81.6589   21.9610  -78.7082 O.2       3 UNK        -0.5091 
     57 CA        -82.9721   21.8454  -76.7082 C.3       3 UNK         0.0250 
     58 CB        -82.6775   20.6493  -75.7870 C.3       3 UNK        -0.1996 
     59 N         -83.4965   22.9601  -75.9170 N.am      3 UNK        -0.4254 
     60 C         -84.1934   23.9879  -76.4242 C.2       2 UNK         0.5004 
     61 O         -84.4973   24.0939  -77.6127 O.2       2 UNK        -0.5226 
     62 CA        -84.6288   25.0828  -75.4349 C.3       2 UNK         0.0269 
     63 CB        -85.9893   24.7372  -74.8084 C.3       2 UNK        -0.1926 
     64 N         -83.6445   25.3006  -74.3715 N.am      2 UNK        -0.4687 
     65 C         -82.4643   25.9080  -74.5514 C.2       1 UNK         0.5165 
     66 O         -82.1085   26.3949  -75.6262 O.2       1 UNK        -0.5079 
     67 H67       -80.5843   22.0771  -71.3411 H         1 UNK         0.0900 
     68 H68       -80.0712   22.1930  -73.0270 H         1 UNK         0.0900 
     69 H69       -81.6181   21.4433  -72.6229 H         1 UNK         0.0900 
     70 H70       -80.1296   24.3643  -73.5973 H         1 UNK         0.2959 
     71 H71       -82.0998   26.2311  -72.4690 H         1 UNK         0.1079 
     72 H72       -79.7404   26.6766  -74.3715 H         1 UNK         0.0837 
     73 H73       -80.7680   27.9284  -73.7267 H         1 UNK         0.0837 
     74 H74       -79.6602   29.4173  -72.3535 H         1 UNK         0.0685 
     75 H75       -78.6149   29.0902  -71.0014 H         1 UNK         0.0685 
     76 H76       -78.7184   29.2401  -74.7318 H         1 UNK         0.1434 
     77 H77       -74.4695   29.7148  -75.0766 H         1 UNK         0.1329 
     78 H78       -76.2237   28.9158  -71.2532 H         1 UNK         0.1335 
     79 H79       -73.0517   29.2932  -73.2166 H         1 UNK         0.0680 
     80 H80       -73.6900   28.5606  -71.7624 H         1 UNK         0.0680 
     81 H81       -71.3882   29.9803  -71.4625 H         1 UNK         0.1032 
     82 H82       -71.6897   31.0835  -70.1522 H         1 UNK         0.1032 
     83 H83       -71.5022   33.0291  -71.6781 H         1 UNK         0.0461 
     84 H84       -67.6882   32.6869  -72.1474 H         1 UNK         0.3453 
     85 H85       -68.9081   32.7733  -73.3952 H         1 UNK         0.3453 
     86 H86       -71.7945   32.8207  -73.8357 H         1 UNK         0.2984 
     87 H87       -72.4419   31.4287  -75.7043 H         1 UNK         0.0554 
     88 H88       -70.9401   32.3729  -77.5221 H         1 UNK         0.0847 
     89 H89       -69.5697   32.2316  -76.4218 H         1 UNK         0.0847 
     90 H90       -70.9037   33.3002  -76.0338 H         1 UNK         0.0847 
     91 H91       -72.1212   29.3258  -76.3741 H         1 UNK         0.3141 
     92 H92       -71.3439   27.7958  -77.9864 H         1 UNK         0.0743 
     93 H93       -68.3623   27.1910  -77.5949 H         1 UNK         0.0784 
     94 H94       -69.5078   26.2266  -78.5268 H         1 UNK         0.0784 
     95 H95       -69.0883   27.8472  -79.0555 H         1 UNK         0.0784 
     96 H96       -69.9001   26.4047  -75.8743 H         1 UNK         0.3213 
     97 H97       -71.3939   25.0865  -74.4655 H         1 UNK         0.0855 
     98 H98       -71.3263   27.6753  -72.7872 H         1 UNK         0.0814 
     99 H99       -69.9136   26.8300  -73.3929 H         1 UNK         0.0814 
    100 H100      -70.9332   26.0671  -72.1865 H         1 UNK         0.0814 
    101 H101      -73.8195   26.5621  -74.1888 H         1 UNK         0.3105 
    102 H102      -75.4824   23.8590  -72.7090 H         1 UNK         0.0547 
    103 H103      -74.9926   25.0071  -70.5675 H         1 UNK         0.0837 
    104 H104      -75.1987   26.5777  -71.3236 H         1 UNK         0.0837 
    105 H105      -76.5738   25.4850  -71.1618 H         1 UNK         0.0837 
    106 H106      -76.4361   26.4212  -73.5048 H         1 UNK         0.3020 
    107 H107      -77.6986   26.5038  -75.3075 H         1 UNK         0.1245 
    108 H108      -75.4060   27.3786  -76.2632 H         1 UNK         0.0781 
    109 H109      -75.7465   26.4087  -77.6608 H         1 UNK         0.0781 
    110 H110      -75.7908   30.0302  -76.9987 H         1 UNK         0.0836 
    111 H111      -77.4431   30.5301  -76.7517 H         1 UNK         0.0836 
    112 H112      -77.6683   25.0745  -77.7726 H         1 UNK         0.3022 
    113 H113      -79.6560   23.9111  -78.2716 H         1 UNK         0.0747 
    114 H114      -79.0004   21.4938  -78.4906 H         1 UNK         0.0793 
    115 H115      -77.5915   22.4400  -78.0552 H         1 UNK         0.0793 
    116 H116      -78.4104   21.4829  -76.8297 H         1 UNK         0.0793 
    117 H117      -80.8866   23.0968  -75.8568 H         1 UNK         0.3047 
    118 H118      -83.7412   21.5376  -77.4205 H         1 UNK         0.0822 
    119 H119      -83.5740   20.3257  -75.2578 H         1 UNK         0.0807 
    120 H120      -81.9144   20.8824  -75.0441 H         1 UNK         0.0807 
    121 H121      -82.3180   19.7957  -76.3634 H         1 UNK         0.0807 
    122 H122      -83.3113   22.9534  -74.9252 H         1 UNK         0.2946 
    123 H123      -84.7378   26.0111  -76.0012 H         1 UNK         0.1144 
    124 H124      -86.7462   24.5850  -75.5793 H         1 UNK         0.0793 
    125 H125      -86.3439   25.5412  -74.1630 H         1 UNK         0.0793 
    126 H126      -85.9419   23.8246  -74.2128 H         1 UNK         0.0793 
    127 H127      -83.8332   24.8855  -73.4659 H         1 UNK         0.2896 
@<TRIPOS>BOND
     1    1    2 1    
     2    1   67 1    
     3    1   68 1    
     4    1   69 1    
     5    2    3 2    
     6    2    4 am   BACKBONE|DICT|INTERRES
     7    4    5 1    
     8    4   70 1    
     9    5    6 1    
    10    5   65 1    
    11    5   71 1    
    12    6    7 1    
    13    6   72 1    
    14    6   73 1    
    15    7    8 1    
    16    8    9 1    
    17    8   74 1    
    18    8   75 1    
    19    9   10 ar   
    20    9   14 ar   
    21   10   11 ar   
    22   10   76 1    
    23   11   12 ar   
    24   11   48 1    
    25   12   13 ar   
    26   12   77 1    
    27   13   14 ar   
    28   13   15 1    
    29   14   78 1    
    30   15   16 1    
    31   15   79 1    
    32   15   80 1    
    33   16   17 1    
    34   17   18 1    
    35   17   81 1    
    36   17   82 1    
    37   18   19 1    
    38   18   22 1    
    39   18   83 1    
    40   19   20 am   BACKBONE|DICT|INTERRES
    41   19   21 2    
    42   20   84 1    
    43   20   85 1    
    44   22   23 am   BACKBONE|DICT|INTERRES
    45   22   86 1    
    46   23   24 2    
    47   23   25 1    
    48   25   26 1    
    49   25   27 1    
    50   25   87 1    
    51   26   88 1    
    52   26   89 1    
    53   26   90 1    
    54   27   28 am   BACKBONE|DICT|INTERRES
    55   27   91 1    
    56   28   29 2    
    57   28   30 1    
    58   30   31 1    
    59   30   32 1    
    60   30   92 1    
    61   31   93 1    
    62   31   94 1    
    63   31   95 1    
    64   32   33 am   BACKBONE|DICT|INTERRES
    65   32   96 1    
    66   33   34 2    
    67   33   35 1    
    68   35   36 1    
    69   35   37 1    
    70   35   97 1    
    71   36   98 1    
    72   36   99 1    
    73   36  100 1    
    74   37   38 am   BACKBONE|DICT|INTERRES
    75   37  101 1    
    76   38   39 2    
    77   38   40 1    
    78   40   41 1    
    79   40   42 1    
    80   40  102 1    
    81   41  103 1    
    82   41  104 1    
    83   41  105 1    
    84   42   43 am   BACKBONE|DICT|INTERRES
    85   42  106 1    
    86   43   44 2    
    87   43   45 1    
    88   45   46 1    
    89   45   49 1    
    90   45  107 1    
    91   46   47 1    
    92   46  108 1    
    93   46  109 1    
    94   47   48 1    
    95   48  110 1    
    96   48  111 1    
    97   49   50 am   BACKBONE|DICT|INTERRES
    98   49  112 1    
    99   50   51 2    
   100   50   52 1    
   101   52   53 1    
   102   52   54 1    
   103   52  113 1    
   104   53  114 1    
   105   53  115 1    
   106   53  116 1    
   107   54   55 am   BACKBONE|DICT|INTERRES
   108   54  117 1    
   109   55   56 2    
   110   55   57 1    
   111   57   58 1    
   112   57   59 1    
   113   57  118 1    
   114   58  119 1    
   115   58  120 1    
   116   58  121 1    
   117   59   60 am   BACKBONE|DICT|INTERRES
   118   59  122 1    
   119   60   61 2    
   120   60   62 1    
   121   62   63 1    
   122   62   64 1    
   123   62  123 1    
   124   63  124 1    
   125   63  125 1    
   126   63  126 1    
   127   64   65 am   BACKBONE|DICT|INTERRES
   128   64  127 1    
   129   65   66 2    
@<TRIPOS>SUBSTRUCTURE
     1 UNK         1 GROUP             0       ****    0 ROOT    
