@<TRIPOS>MOLECULE
3R135
127   129    1
SMALL
USER_CHARGES


@<TRIPOS>ATOM
      1 CA        -79.8908   27.2423  -70.1856 C.3       0 UNK        -0.1998 
      2 C         -81.0071   28.0070  -70.8765 C.2       0 UNK         0.4909 
      3 O         -82.0852   28.1658  -70.3034 O.2       0 UNK        -0.5240 
      4 N         -80.7635   28.4733  -72.1095 N.am      1 UNK        -0.4739 
      5 CA        -81.7559   29.1783  -72.9337 C.3       1 UNK         0.0864 
      6 C6        -81.0933   30.0075  -74.0644 C.3       11 UNK        -0.0881 
      7 S7        -80.2718   29.0123  -75.3607 S.3       11 UNK        -0.2682 
      8 C8        -78.5229   29.4716  -75.1680 C.3       11 UNK         0.0289 
      9 C9        -77.9098   28.8798  -73.9077 C.ar      11 UNK        -0.0687 
     10 C10       -77.7126   27.4997  -73.8132 C.ar      11 UNK        -0.0823 
     11 C11       -77.1624   26.9374  -72.6583 C.ar      11 UNK        -0.0830 
     12 C12       -76.7965   27.7702  -71.5972 C.ar      11 UNK        -0.1021 
     13 C13       -77.0009   29.1516  -71.6738 C.ar      11 UNK        -0.0753 
     14 C14       -77.5511   29.7027  -72.8354 C.ar      11 UNK        -0.0933 
     15 C15       -76.6870   30.0317  -70.4722 C.3       11 UNK         0.0166 
     16 S16       -74.9197   30.4474  -70.3544 S.3       11 UNK        -0.2615 
     17 C17       -74.7630   31.8264  -71.5470 C.3       11 UNK        -0.0865 
     18 CA        -73.7318   31.5625  -72.6748 C.3       10 UNK         0.0862 
     19 C         -72.2625   31.5930  -72.1520 C.2       10 UNK         0.5551 
     20 N         -71.4776   30.5288  -72.2774 N.am      10 UNK        -0.7319 
     21 O         -71.8225   32.6157  -71.6319 O.2       10 UNK        -0.5018 
     22 N         -74.0961   30.3751  -73.4579 N.am      10 UNK        -0.4509 
     23 C         -73.6451   30.0989  -74.6848 C.2       10 UNK         0.4899 
     24 O         -72.9424   30.8557  -75.3577 O.2       10 UNK        -0.4839 
     25 CA        -74.0517   28.7313  -75.2524 C.3       9 UNK         0.0222 
     26 CB        -74.9733   28.9095  -76.4673 C.3       9 UNK        -0.1966 
     27 N         -72.8953   27.9086  -75.6233 N.am      9 UNK        -0.4218 
     28 C         -71.9013   27.5530  -74.7908 C.2       9 UNK         0.5020 
     29 O         -71.8563   27.8940  -73.6071 O.2       9 UNK        -0.5274 
     30 CA        -70.7829   26.6403  -75.3308 C.3       8 UNK         0.0270 
     31 CB        -70.6719   25.3542  -74.4919 C.3       8 UNK        -0.1976 
     32 N         -70.9583   26.2750  -76.7391 N.am      8 UNK        -0.4313 
     33 C         -70.4792   26.9845  -77.7712 C.2       8 UNK         0.5041 
     34 O         -69.8176   28.0147  -77.6389 O.2       8 UNK        -0.5577 
     35 CA        -70.7849   26.4772  -79.1949 C.3       7 UNK         0.0284 
     36 CB        -69.5674   25.7371  -79.7727 C.3       7 UNK        -0.1958 
     37 N         -71.9624   25.6084  -79.2891 N.am      7 UNK        -0.4454 
     38 C         -73.2185   25.9860  -79.0173 C.2       7 UNK         0.5089 
     39 O         -73.5197   27.1236  -78.6574 O.2       7 UNK        -0.5125 
     40 CA        -74.3240   24.9152  -79.1064 C.3       6 UNK         0.0408 
     41 CB        -73.8829   23.6008  -79.7900 C.3       6 UNK        -0.1791 
     42 N         -74.9046   24.6324  -77.7883 N.am      6 UNK        -0.4762 
     43 C         -74.2460   24.2415  -76.6837 C.2       6 UNK         0.5007 
     44 O         -73.0248   24.0806  -76.6408 O.2       6 UNK        -0.5032 
     45 CA        -75.0787   23.9986  -75.4051 C.3       5 UNK         0.0783 
     46 C46       -74.9686   25.2232  -74.4667 C.3       11 UNK        -0.0857 
     47 S47       -75.3295   24.8296  -72.7272 S.3       11 UNK        -0.2512 
     48 C48       -77.0327   25.4260  -72.5288 C.3       11 UNK         0.0225 
     49 N         -76.4749   23.6496  -75.7134 N.am      5 UNK        -0.4615 
     50 C         -76.8532   22.4736  -76.2308 C.2       4 UNK         0.5053 
     51 O         -76.0900   21.5156  -76.3651 O.2       4 UNK        -0.5105 
     52 CA        -78.3201   22.3583  -76.6856 C.3       4 UNK         0.0263 
     53 CB        -78.5719   21.1052  -77.5458 C.3       4 UNK        -0.1981 
     54 N         -79.2453   22.3453  -75.5528 N.am      4 UNK        -0.4224 
     55 C         -79.6974   23.4327  -74.9182 C.2       3 UNK         0.4895 
     56 O         -79.3286   24.5806  -75.1795 O.2       3 UNK        -0.5091 
     57 CA        -80.7028   23.1814  -73.7801 C.3       3 UNK         0.0250 
     58 CB        -79.9727   22.9197  -72.4523 C.3       3 UNK        -0.1996 
     59 N         -81.6337   24.2972  -73.5979 N.am      3 UNK        -0.4254 
     60 C         -82.5937   24.6471  -74.4678 C.2       2 UNK         0.5004 
     61 O         -82.8385   24.0341  -75.5076 O.2       2 UNK        -0.5226 
     62 CA        -83.4181   25.8913  -74.1151 C.3       2 UNK         0.0269 
     63 CB        -84.5352   25.5409  -73.1122 C.3       2 UNK        -0.1926 
     64 N         -82.5491   26.9444  -73.5895 N.am      2 UNK        -0.4687 
     65 C         -82.8638   28.2410  -73.4703 C.2       1 UNK         0.5165 
     66 O         -83.9654   28.7086  -73.7638 O.2       1 UNK        -0.5079 
     67 H67       -79.3890   26.5730  -70.8821 H         1 UNK         0.0900 
     68 H68       -80.2867   26.6374  -69.3702 H         1 UNK         0.0900 
     69 H69       -79.1582   27.9338  -69.7710 H         1 UNK         0.0900 
     70 H70       -79.8529   28.3432  -72.5318 H         1 UNK         0.2959 
     71 H71       -82.2641   29.8911  -72.2798 H         1 UNK         0.1079 
     72 H72       -80.3779   30.7088  -73.6325 H         1 UNK         0.0837 
     73 H73       -81.8449   30.6305  -74.5528 H         1 UNK         0.0837 
     74 H74       -77.9849   29.0947  -76.0375 H         1 UNK         0.0685 
     75 H75       -78.4210   30.5578  -75.1880 H         1 UNK         0.0685 
     76 H76       -78.0128   26.8629  -74.6347 H         1 UNK         0.1434 
     77 H77       -76.3829   27.3383  -70.6958 H         1 UNK         0.1329 
     78 H78       -77.7188   30.7692  -72.8970 H         1 UNK         0.1335 
     79 H79       -77.2836   30.9452  -70.4918 H         1 UNK         0.0680 
     80 H80       -76.9775   29.5074  -69.5606 H         1 UNK         0.0680 
     81 H81       -74.5033   32.7317  -70.9950 H         1 UNK         0.1032 
     82 H82       -75.7353   32.0363  -71.9938 H         1 UNK         0.1032 
     83 H83       -73.8014   32.4122  -73.3569 H         1 UNK         0.0461 
     84 H84       -71.8126   29.6759  -72.7139 H         1 UNK         0.3453 
     85 H85       -70.5317   30.5742  -71.9348 H         1 UNK         0.3453 
     86 H86       -74.6489   29.6864  -72.9662 H         1 UNK         0.2984 
     87 H87       -74.6068   28.1916  -74.4828 H         1 UNK         0.0554 
     88 H88       -75.4264   27.9648  -76.7682 H         1 UNK         0.0847 
     89 H89       -75.7796   29.6070  -76.2442 H         1 UNK         0.0847 
     90 H90       -74.4335   29.3140  -77.3244 H         1 UNK         0.0847 
     91 H91       -72.8458   27.6167  -76.5920 H         1 UNK         0.3141 
     92 H92       -69.8457   27.1889  -75.2157 H         1 UNK         0.0743 
     93 H93       -70.4521   25.5852  -73.4487 H         1 UNK         0.0784 
     94 H94       -71.5959   24.7765  -74.5063 H         1 UNK         0.0784 
     95 H95       -69.8691   24.7119  -74.8543 H         1 UNK         0.0784 
     96 H96       -71.5205   25.4487  -76.9235 H         1 UNK         0.3213 
     97 H97       -70.9751   27.3569  -79.8138 H         1 UNK         0.0855 
     98 H98       -68.6783   26.3690  -79.7469 H         1 UNK         0.0814 
     99 H99       -69.7297   25.4542  -80.8130 H         1 UNK         0.0814 
    100 H100      -69.3393   24.8321  -79.2080 H         1 UNK         0.0814 
    101 H101      -71.7985   24.6457  -79.5458 H         1 UNK         0.3105 
    102 H102      -75.1203   25.3505  -79.7119 H         1 UNK         0.0547 
    103 H103      -73.4925   23.7868  -80.7916 H         1 UNK         0.0837 
    104 H104      -73.1156   23.0724  -79.2232 H         1 UNK         0.0837 
    105 H105      -74.7275   22.9208  -79.9023 H         1 UNK         0.0837 
    106 H106      -75.9011   24.7771  -77.7118 H         1 UNK         0.3020 
    107 H107      -74.6167   23.1431  -74.9060 H         1 UNK         0.1245 
    108 H108      -73.9488   25.6056  -74.4569 H         1 UNK         0.0781 
    109 H109      -75.5910   26.0434  -74.8222 H         1 UNK         0.0781 
    110 H110      -77.3921   25.1182  -71.5462 H         1 UNK         0.0836 
    111 H111      -77.6664   24.9204  -73.2538 H         1 UNK         0.0836 
    112 H112      -77.1804   24.3637  -75.5786 H         1 UNK         0.3022 
    113 H113      -78.5355   23.2285  -77.3100 H         1 UNK         0.0747 
    114 H114      -79.5951   21.0816  -77.9215 H         1 UNK         0.0793 
    115 H115      -77.9105   21.0876  -78.4133 H         1 UNK         0.0793 
    116 H116      -78.3992   20.1854  -76.9853 H         1 UNK         0.0793 
    117 H117      -79.5573   21.4360  -75.2426 H         1 UNK         0.3047 
    118 H118      -81.2890   22.2951  -74.0332 H         1 UNK         0.0822 
    119 H119      -80.6691   22.5982  -71.6776 H         1 UNK         0.0807 
    120 H120      -79.4615   23.8100  -72.0880 H         1 UNK         0.0807 
    121 H121      -79.2249   22.1323  -72.5579 H         1 UNK         0.0807 
    122 H122      -81.5308   24.8318  -72.7495 H         1 UNK         0.2946 
    123 H123      -83.8749   26.2528  -75.0395 H         1 UNK         0.1144 
    124 H124      -85.2030   26.3858  -72.9446 H         1 UNK         0.0793 
    125 H125      -84.1301   25.2393  -72.1456 H         1 UNK         0.0793 
    126 H126      -85.1479   24.7178  -73.4824 H         1 UNK         0.0793 
    127 H127      -81.5907   26.6842  -73.4059 H         1 UNK         0.2896 
@<TRIPOS>BOND
     1    1    2 1    
     2    1   67 1    
     3    1   68 1    
     4    1   69 1    
     5    2    3 2    
     6    2    4 am   BACKBONE|DICT|INTERRES
     7    4    5 1    
     8    4   70 1    
     9    5    6 1    
    10    5   65 1    
    11    5   71 1    
    12    6    7 1    
    13    6   72 1    
    14    6   73 1    
    15    7    8 1    
    16    8    9 1    
    17    8   74 1    
    18    8   75 1    
    19    9   10 ar   
    20    9   14 ar   
    21   10   11 ar   
    22   10   76 1    
    23   11   12 ar   
    24   11   48 1    
    25   12   13 ar   
    26   12   77 1    
    27   13   14 ar   
    28   13   15 1    
    29   14   78 1    
    30   15   16 1    
    31   15   79 1    
    32   15   80 1    
    33   16   17 1    
    34   17   18 1    
    35   17   81 1    
    36   17   82 1    
    37   18   19 1    
    38   18   22 1    
    39   18   83 1    
    40   19   20 am   BACKBONE|DICT|INTERRES
    41   19   21 2    
    42   20   84 1    
    43   20   85 1    
    44   22   23 am   BACKBONE|DICT|INTERRES
    45   22   86 1    
    46   23   24 2    
    47   23   25 1    
    48   25   26 1    
    49   25   27 1    
    50   25   87 1    
    51   26   88 1    
    52   26   89 1    
    53   26   90 1    
    54   27   28 am   BACKBONE|DICT|INTERRES
    55   27   91 1    
    56   28   29 2    
    57   28   30 1    
    58   30   31 1    
    59   30   32 1    
    60   30   92 1    
    61   31   93 1    
    62   31   94 1    
    63   31   95 1    
    64   32   33 am   BACKBONE|DICT|INTERRES
    65   32   96 1    
    66   33   34 2    
    67   33   35 1    
    68   35   36 1    
    69   35   37 1    
    70   35   97 1    
    71   36   98 1    
    72   36   99 1    
    73   36  100 1    
    74   37   38 am   BACKBONE|DICT|INTERRES
    75   37  101 1    
    76   38   39 2    
    77   38   40 1    
    78   40   41 1    
    79   40   42 1    
    80   40  102 1    
    81   41  103 1    
    82   41  104 1    
    83   41  105 1    
    84   42   43 am   BACKBONE|DICT|INTERRES
    85   42  106 1    
    86   43   44 2    
    87   43   45 1    
    88   45   46 1    
    89   45   49 1    
    90   45  107 1    
    91   46   47 1    
    92   46  108 1    
    93   46  109 1    
    94   47   48 1    
    95   48  110 1    
    96   48  111 1    
    97   49   50 am   BACKBONE|DICT|INTERRES
    98   49  112 1    
    99   50   51 2    
   100   50   52 1    
   101   52   53 1    
   102   52   54 1    
   103   52  113 1    
   104   53  114 1    
   105   53  115 1    
   106   53  116 1    
   107   54   55 am   BACKBONE|DICT|INTERRES
   108   54  117 1    
   109   55   56 2    
   110   55   57 1    
   111   57   58 1    
   112   57   59 1    
   113   57  118 1    
   114   58  119 1    
   115   58  120 1    
   116   58  121 1    
   117   59   60 am   BACKBONE|DICT|INTERRES
   118   59  122 1    
   119   60   61 2    
   120   60   62 1    
   121   62   63 1    
   122   62   64 1    
   123   62  123 1    
   124   63  124 1    
   125   63  125 1    
   126   63  126 1    
   127   64   65 am   BACKBONE|DICT|INTERRES
   128   64  127 1    
   129   65   66 2    
@<TRIPOS>SUBSTRUCTURE
     1 UNK         1 GROUP             0       ****    0 ROOT    
