@<TRIPOS>MOLECULE
3R135
127   129    1
SMALL
USER_CHARGES


@<TRIPOS>ATOM
      1 CA        -79.2953   29.8071  -77.3819 C.3       0 UNK        -0.1998 
      2 C         -79.3890   28.9068  -76.1607 C.2       0 UNK         0.4909 
      3 O         -78.4767   28.1169  -75.9099 O.2       0 UNK        -0.5240 
      4 N         -80.4838   29.0281  -75.4015 N.am      1 UNK        -0.4739 
      5 CA        -80.7730   28.2020  -74.2278 C.3       1 UNK         0.0864 
      6 C6        -81.8495   28.8420  -73.3170 C.3       11 UNK        -0.0881 
      7 S7        -81.3409   30.4577  -72.6410 S.3       11 UNK        -0.2682 
      8 C8        -80.7744   29.9998  -70.9718 C.3       11 UNK         0.0289 
      9 C9        -79.3560   29.4481  -70.9886 C.ar      11 UNK        -0.0687 
     10 C10       -79.1226   28.0702  -71.0494 C.ar      11 UNK        -0.0823 
     11 C11       -77.8175   27.5642  -71.0621 C.ar      11 UNK        -0.0830 
     12 C12       -76.7436   28.4591  -70.9599 C.ar      11 UNK        -0.1021 
     13 C13       -76.9634   29.8380  -70.8980 C.ar      11 UNK        -0.0753 
     14 C14       -78.2715   30.3260  -70.9217 C.ar      11 UNK        -0.0933 
     15 C15       -75.7956   30.8048  -70.7710 C.3       11 UNK         0.0166 
     16 S16       -75.2286   31.4136  -72.3914 S.3       11 UNK        -0.2615 
     17 C17       -74.1225   30.0669  -72.9348 C.3       11 UNK        -0.0865 
     18 CA        -72.6222   30.3955  -72.7134 C.3       10 UNK         0.0862 
     19 C         -72.2141   30.2649  -71.2188 C.2       10 UNK         0.5551 
     20 N         -72.0824   31.3759  -70.5073 N.am      10 UNK        -0.7319 
     21 O         -72.0539   29.1638  -70.6959 O.2       10 UNK        -0.5018 
     22 N         -71.7904   29.5595  -73.5850 N.am      10 UNK        -0.4509 
     23 C         -70.4685   29.6592  -73.7540 C.2       10 UNK         0.4899 
     24 O         -69.7792   30.5519  -73.2601 O.2       10 UNK        -0.4839 
     25 CA        -69.7898   28.5894  -74.6320 C.3       9 UNK         0.0222 
     26 CB        -69.5198   27.3070  -73.8205 C.3       9 UNK        -0.1966 
     27 N         -70.4755   28.2868  -75.8999 N.am      9 UNK        -0.4218 
     28 C         -71.6843   27.7414  -76.0987 C.2       9 UNK         0.5020 
     29 O         -72.4518   27.4013  -75.1936 O.2       9 UNK        -0.5274 
     30 CA        -72.0934   27.5288  -77.5615 C.3       8 UNK         0.0270 
     31 CB        -71.7291   26.1088  -78.0247 C.3       8 UNK        -0.1976 
     32 N         -73.5334   27.7379  -77.7100 N.am      8 UNK        -0.4313 
     33 C         -74.0952   28.9257  -77.9739 C.2       8 UNK         0.5041 
     34 O         -73.4322   29.9486  -78.1585 O.2       8 UNK        -0.5577 
     35 CA        -75.6349   29.0340  -78.0351 C.3       7 UNK         0.0284 
     36 CB        -76.0889   29.7409  -79.3316 C.3       7 UNK        -0.1958 
     37 N         -76.3681   27.7763  -77.8325 N.am      7 UNK        -0.4454 
     38 C         -76.3949   26.6944  -78.6231 C.2       7 UNK         0.5089 
     39 O         -75.8101   26.6170  -79.7049 O.2       7 UNK        -0.5125 
     40 CA        -77.1743   25.4788  -78.0742 C.3       6 UNK         0.0408 
     41 CB        -76.9212   24.1986  -78.8955 C.3       6 UNK        -0.1791 
     42 N         -76.9333   25.2101  -76.6475 N.am      6 UNK        -0.4762 
     43 C         -75.7450   25.1004  -76.0303 C.2       6 UNK         0.5007 
     44 O         -74.6654   25.2508  -76.5993 O.2       6 UNK        -0.5032 
     45 CA        -75.7589   24.7309  -74.5391 C.3       5 UNK         0.0783 
     46 C46       -76.2750   25.8965  -73.6576 C.3       11 UNK        -0.0857 
     47 S47       -76.0225   25.5295  -71.8870 S.3       11 UNK        -0.2512 
     48 C48       -77.6050   26.0502  -71.1359 C.3       11 UNK         0.0225 
     49 N         -76.5352   23.5030  -74.3605 N.am      5 UNK        -0.4615 
     50 C         -76.0096   22.2818  -74.1959 C.2       4 UNK         0.5053 
     51 O         -74.8004   22.0589  -74.1288 O.2       4 UNK        -0.5105 
     52 CA        -76.9893   21.0975  -74.0762 C.3       4 UNK         0.0263 
     53 CB        -77.2417   20.7631  -72.5969 C.3       4 UNK        -0.1981 
     54 N         -78.2734   21.3394  -74.7365 N.am      4 UNK        -0.4224 
     55 C         -78.4489   21.4251  -76.0628 C.2       3 UNK         0.4895 
     56 O         -77.5689   21.1709  -76.8851 O.2       3 UNK        -0.5091 
     57 CA        -79.8302   21.8960  -76.5621 C.3       3 UNK         0.0250 
     58 CB        -80.6516   20.7003  -77.0711 C.3       3 UNK        -0.1996 
     59 N         -80.6264   22.6423  -75.5762 N.am      3 UNK        -0.4254 
     60 C         -80.2570   23.7900  -74.9910 C.2       2 UNK         0.5004 
     61 O         -79.1626   24.3289  -75.1712 O.2       2 UNK        -0.5226 
     62 CA        -81.2413   24.3928  -73.9772 C.3       2 UNK         0.0269 
     63 CB        -81.1370   23.6542  -72.6319 C.3       2 UNK        -0.1926 
     64 N         -80.9703   25.8135  -73.7518 N.am      2 UNK        -0.4687 
     65 C         -81.2092   26.7836  -74.6434 C.2       1 UNK         0.5165 
     66 O         -81.7885   26.5993  -75.7180 O.2       1 UNK        -0.5079 
     67 H67       -78.4141   30.4435  -77.3113 H         1 UNK         0.0900 
     68 H68       -80.1692   30.4504  -77.4828 H         1 UNK         0.0900 
     69 H69       -79.2160   29.2014  -78.2839 H         1 UNK         0.0900 
     70 H70       -81.2045   29.6855  -75.6613 H         1 UNK         0.2959 
     71 H71       -79.8433   28.1089  -73.6641 H         1 UNK         0.1079 
     72 H72       -82.7774   28.9885  -73.8736 H         1 UNK         0.0837 
     73 H73       -82.1059   28.1786  -72.4888 H         1 UNK         0.0837 
     74 H74       -80.8100   30.8883  -70.3394 H         1 UNK         0.0685 
     75 H75       -81.4639   29.2856  -70.5192 H         1 UNK         0.0685 
     76 H76       -79.9629   27.3913  -71.0845 H         1 UNK         0.1434 
     77 H77       -75.7307   28.0857  -70.9195 H         1 UNK         0.1329 
     78 H78       -78.4468   31.3923  -70.8742 H         1 UNK         0.1335 
     79 H79       -76.0967   31.6620  -70.1667 H         1 UNK         0.0680 
     80 H80       -74.9709   30.3367  -70.2324 H         1 UNK         0.0680 
     81 H81       -74.3154   29.9249  -73.9997 H         1 UNK         0.1032 
     82 H82       -74.3934   29.1210  -72.4652 H         1 UNK         0.1032 
     83 H83       -72.4485   31.4259  -73.0308 H         1 UNK         0.0461 
     84 H84       -71.8283   31.3100  -69.5343 H         1 UNK         0.3453 
     85 H85       -72.2291   32.2804  -70.9275 H         1 UNK         0.3453 
     86 H86       -72.2448   28.7637  -74.0286 H         1 UNK         0.2984 
     87 H87       -68.8196   28.9976  -74.9202 H         1 UNK         0.0554 
     88 H88       -68.9598   26.5775  -74.4054 H         1 UNK         0.0847 
     89 H89       -70.4427   26.8315  -73.4870 H         1 UNK         0.0847 
     90 H90       -68.9314   27.5279  -72.9289 H         1 UNK         0.0847 
     91 H91       -69.9529   28.5486  -76.7251 H         1 UNK         0.3141 
     92 H92       -71.5553   28.2384  -78.1941 H         1 UNK         0.0743 
     93 H93       -72.1685   25.3456  -77.3818 H         1 UNK         0.0784 
     94 H94       -72.0691   25.9240  -79.0440 H         1 UNK         0.0784 
     95 H95       -70.6488   25.9597  -78.0100 H         1 UNK         0.0784 
     96 H96       -74.1219   26.9425  -77.4776 H         1 UNK         0.3213 
     97 H97       -75.9191   29.6709  -77.1961 H         1 UNK         0.0855 
     98 H98       -75.6993   30.7586  -79.3772 H         1 UNK         0.0814 
     99 H99       -77.1730   29.8094  -79.4006 H         1 UNK         0.0814 
    100 H100      -75.7318   29.2219  -80.2215 H         1 UNK         0.0814 
    101 H101      -76.9310   27.7365  -76.9840 H         1 UNK         0.3105 
    102 H102      -78.2326   25.7286  -78.1628 H         1 UNK         0.0547 
    103 H103      -77.1800   24.3454  -79.9448 H         1 UNK         0.0837 
    104 H104      -75.8742   23.8962  -78.8555 H         1 UNK         0.0837 
    105 H105      -77.5226   23.3675  -78.5302 H         1 UNK         0.0837 
    106 H106      -77.7729   25.0570  -76.0896 H         1 UNK         0.3020 
    107 H107      -74.7174   24.5523  -74.2600 H         1 UNK         0.1245 
    108 H108      -77.3303   26.0979  -73.8529 H         1 UNK         0.0781 
    109 H109      -75.7388   26.8202  -73.8849 H         1 UNK         0.0781 
    110 H110      -77.6476   25.6524  -70.1213 H         1 UNK         0.0836 
    111 H111      -78.4195   25.5767  -71.6853 H         1 UNK         0.0836 
    112 H112      -77.5391   23.6019  -74.4720 H         1 UNK         0.3022 
    113 H113      -76.5207   20.2322  -74.5499 H         1 UNK         0.0747 
    114 H114      -77.8787   19.8849  -72.4904 H         1 UNK         0.0793 
    115 H115      -76.3048   20.5461  -72.0816 H         1 UNK         0.0793 
    116 H116      -77.7175   21.5918  -72.0706 H         1 UNK         0.0793 
    117 H117      -79.0610   21.5426  -74.1397 H         1 UNK         0.3047 
    118 H118      -79.6488   22.5680  -77.4035 H         1 UNK         0.0822 
    119 H119      -81.5863   21.0252  -77.5287 H         1 UNK         0.0807 
    120 H120      -80.8935   20.0047  -76.2665 H         1 UNK         0.0807 
    121 H121      -80.1008   20.1418  -77.8296 H         1 UNK         0.0807 
    122 H122      -81.5325   22.2553  -75.3527 H         1 UNK         0.2946 
    123 H123      -82.2557   24.2890  -74.3698 H         1 UNK         0.1144 
    124 H124      -81.3910   22.5989  -72.7400 H         1 UNK         0.0793 
    125 H125      -81.8235   24.0727  -71.8955 H         1 UNK         0.0793 
    126 H126      -80.1291   23.7052  -72.2174 H         1 UNK         0.0793 
    127 H127      -80.4805   26.0417  -72.9016 H         1 UNK         0.2896 
@<TRIPOS>BOND
     1    1    2 1    
     2    1   67 1    
     3    1   68 1    
     4    1   69 1    
     5    2    3 2    
     6    2    4 am   BACKBONE|DICT|INTERRES
     7    4    5 1    
     8    4   70 1    
     9    5    6 1    
    10    5   65 1    
    11    5   71 1    
    12    6    7 1    
    13    6   72 1    
    14    6   73 1    
    15    7    8 1    
    16    8    9 1    
    17    8   74 1    
    18    8   75 1    
    19    9   10 ar   
    20    9   14 ar   
    21   10   11 ar   
    22   10   76 1    
    23   11   12 ar   
    24   11   48 1    
    25   12   13 ar   
    26   12   77 1    
    27   13   14 ar   
    28   13   15 1    
    29   14   78 1    
    30   15   16 1    
    31   15   79 1    
    32   15   80 1    
    33   16   17 1    
    34   17   18 1    
    35   17   81 1    
    36   17   82 1    
    37   18   19 1    
    38   18   22 1    
    39   18   83 1    
    40   19   20 am   BACKBONE|DICT|INTERRES
    41   19   21 2    
    42   20   84 1    
    43   20   85 1    
    44   22   23 am   BACKBONE|DICT|INTERRES
    45   22   86 1    
    46   23   24 2    
    47   23   25 1    
    48   25   26 1    
    49   25   27 1    
    50   25   87 1    
    51   26   88 1    
    52   26   89 1    
    53   26   90 1    
    54   27   28 am   BACKBONE|DICT|INTERRES
    55   27   91 1    
    56   28   29 2    
    57   28   30 1    
    58   30   31 1    
    59   30   32 1    
    60   30   92 1    
    61   31   93 1    
    62   31   94 1    
    63   31   95 1    
    64   32   33 am   BACKBONE|DICT|INTERRES
    65   32   96 1    
    66   33   34 2    
    67   33   35 1    
    68   35   36 1    
    69   35   37 1    
    70   35   97 1    
    71   36   98 1    
    72   36   99 1    
    73   36  100 1    
    74   37   38 am   BACKBONE|DICT|INTERRES
    75   37  101 1    
    76   38   39 2    
    77   38   40 1    
    78   40   41 1    
    79   40   42 1    
    80   40  102 1    
    81   41  103 1    
    82   41  104 1    
    83   41  105 1    
    84   42   43 am   BACKBONE|DICT|INTERRES
    85   42  106 1    
    86   43   44 2    
    87   43   45 1    
    88   45   46 1    
    89   45   49 1    
    90   45  107 1    
    91   46   47 1    
    92   46  108 1    
    93   46  109 1    
    94   47   48 1    
    95   48  110 1    
    96   48  111 1    
    97   49   50 am   BACKBONE|DICT|INTERRES
    98   49  112 1    
    99   50   51 2    
   100   50   52 1    
   101   52   53 1    
   102   52   54 1    
   103   52  113 1    
   104   53  114 1    
   105   53  115 1    
   106   53  116 1    
   107   54   55 am   BACKBONE|DICT|INTERRES
   108   54  117 1    
   109   55   56 2    
   110   55   57 1    
   111   57   58 1    
   112   57   59 1    
   113   57  118 1    
   114   58  119 1    
   115   58  120 1    
   116   58  121 1    
   117   59   60 am   BACKBONE|DICT|INTERRES
   118   59  122 1    
   119   60   61 2    
   120   60   62 1    
   121   62   63 1    
   122   62   64 1    
   123   62  123 1    
   124   63  124 1    
   125   63  125 1    
   126   63  126 1    
   127   64   65 am   BACKBONE|DICT|INTERRES
   128   64  127 1    
   129   65   66 2    
@<TRIPOS>SUBSTRUCTURE
     1 UNK         1 GROUP             0       ****    0 ROOT    
