@<TRIPOS>MOLECULE
3R135
127   129    1
SMALL
USER_CHARGES


@<TRIPOS>ATOM
      1 CA        -81.1084   24.3838  -70.9176 C.3       0 UNK        -0.1998 
      2 C         -81.2494   24.9964  -72.3022 C.2       0 UNK         0.4909 
      3 O         -80.3604   24.8155  -73.1314 O.2       0 UNK        -0.5240 
      4 N         -82.3701   25.6940  -72.5492 N.am      1 UNK        -0.4739 
      5 CA        -82.7316   26.4745  -73.7496 C.3       1 UNK         0.0864 
      6 C6        -82.2672   27.9585  -73.6884 C.3       11 UNK        -0.0881 
      7 S7        -80.4630   28.2273  -73.5970 S.3       11 UNK        -0.2682 
      8 C8        -80.2931   28.8407  -71.8897 C.3       11 UNK         0.0289 
      9 C9        -78.8608   29.2440  -71.5666 C.ar      11 UNK        -0.0687 
     10 C10       -78.2467   30.2736  -72.2857 C.ar      11 UNK        -0.0823 
     11 C11       -76.9385   30.6628  -71.9900 C.ar      11 UNK        -0.0830 
     12 C12       -76.2497   30.0307  -70.9518 C.ar      11 UNK        -0.1021 
     13 C13       -76.8373   28.9800  -70.2427 C.ar      11 UNK        -0.0753 
     14 C14       -78.1516   28.6018  -70.5448 C.ar      11 UNK        -0.0933 
     15 C15       -76.0497   28.2430  -69.1657 C.3       11 UNK         0.0166 
     16 S16       -74.7040   27.2189  -69.8653 S.3       11 UNK        -0.2615 
     17 C17       -73.2786   28.3620  -69.8375 C.3       11 UNK        -0.0865 
     18 CA        -72.7759   28.7798  -71.2468 C.3       10 UNK         0.0862 
     19 C         -71.7970   29.9873  -71.1281 C.2       10 UNK         0.5551 
     20 N         -70.5141   29.8405  -71.4369 N.am      10 UNK        -0.7319 
     21 O         -72.2133   31.0759  -70.7402 O.2       10 UNK        -0.5018 
     22 N         -72.2643   27.6323  -72.0223 N.am      10 UNK        -0.4509 
     23 C         -72.0329   27.6640  -73.3426 C.2       10 UNK         0.4899 
     24 O         -72.2331   28.6633  -74.0355 O.2       10 UNK        -0.4839 
     25 CA        -71.4703   26.3876  -74.0013 C.3       9 UNK         0.0222 
     26 CB        -72.0109   25.0875  -73.3757 C.3       9 UNK        -0.1966 
     27 N         -71.7984   26.4036  -75.4284 N.am      9 UNK        -0.4218 
     28 C         -70.9678   26.7755  -76.4114 C.2       9 UNK         0.5020 
     29 O         -69.7620   26.9726  -76.2438 O.2       9 UNK        -0.5274 
     30 CA        -71.5851   27.0164  -77.8068 C.3       8 UNK         0.0270 
     31 CB        -70.5788   26.7910  -78.9565 C.3       8 UNK        -0.1976 
     32 N         -72.8413   26.2960  -78.0519 N.am      8 UNK        -0.4313 
     33 C         -73.0262   24.9688  -78.1410 C.2       8 UNK         0.5041 
     34 O         -72.1160   24.1445  -78.0448 O.2       8 UNK        -0.5577 
     35 CA        -74.4682   24.4691  -78.3680 C.3       7 UNK         0.0284 
     36 CB        -74.8154   23.3098  -77.4165 C.3       7 UNK        -0.1958 
     37 N         -75.4519   25.5381  -78.1785 N.am      7 UNK        -0.4454 
     38 C         -76.1175   26.1741  -79.1524 C.2       7 UNK         0.5089 
     39 O         -76.0251   25.8832  -80.3449 O.2       7 UNK        -0.5125 
     40 CA        -77.0260   27.3494  -78.7377 C.3       6 UNK         0.0408 
     41 CB        -78.5080   26.9530  -78.8436 C.3       6 UNK        -0.1791 
     42 N         -76.7379   27.8541  -77.3881 N.am      6 UNK        -0.4762 
     43 C         -75.6634   28.6021  -77.0861 C.2       6 UNK         0.5007 
     44 O         -74.8445   28.9661  -77.9308 O.2       6 UNK        -0.5032 
     45 CA        -75.3984   28.9462  -75.6026 C.3       5 UNK         0.0783 
     46 C46       -75.9158   30.3647  -75.2516 C.3       11 UNK        -0.0857 
     47 S47       -74.9649   31.1027  -73.8801 S.3       11 UNK        -0.2512 
     48 C48       -76.2628   31.7647  -72.7889 C.3       11 UNK         0.0225 
     49 N         -75.8881   27.9197  -74.6722 N.am      5 UNK        -0.4615 
     50 C         -75.4831   26.6420  -74.6741 C.2       4 UNK         0.5053 
     51 O         -74.6224   26.2099  -75.4408 O.2       4 UNK        -0.5105 
     52 CA        -76.1727   25.6493  -73.7214 C.3       4 UNK         0.0263 
     53 CB        -77.0800   26.3134  -72.6743 C.3       4 UNK        -0.1981 
     54 N         -76.9187   24.6253  -74.4592 N.am      4 UNK        -0.4224 
     55 C         -77.8902   24.8382  -75.3598 C.2       3 UNK         0.4895 
     56 O         -78.2583   25.9582  -75.7173 O.2       3 UNK        -0.5091 
     57 CA        -78.5589   23.6065  -75.9855 C.3       3 UNK         0.0250 
     58 CB        -78.0901   22.2511  -75.4133 C.3       3 UNK        -0.1996 
     59 N         -80.0006   23.7363  -75.8047 N.am      3 UNK        -0.4254 
     60 C         -80.9285   23.4209  -76.7155 C.2       2 UNK         0.5004 
     61 O         -80.6621   22.9691  -77.8304 O.2       2 UNK        -0.5226 
     62 CA        -82.4084   23.6094  -76.3279 C.3       2 UNK         0.0269 
     63 CB        -83.0770   22.2452  -76.0880 C.3       2 UNK        -0.1926 
     64 N         -82.6111   24.4464  -75.1419 N.am      2 UNK        -0.4687 
     65 C         -82.4973   25.7819  -75.1169 C.2       1 UNK         0.5165 
     66 O         -82.2631   26.4524  -76.1242 O.2       1 UNK        -0.5079 
     67 H67       -81.0195   23.3006  -70.9942 H         1 UNK         0.0900 
     68 H68       -81.9617   24.6116  -70.2791 H         1 UNK         0.0900 
     69 H69       -80.2103   24.7658  -70.4327 H         1 UNK         0.0900 
     70 H70       -83.0574   25.7445  -71.8099 H         1 UNK         0.2959 
     71 H71       -83.8210   26.5212  -73.7017 H         1 UNK         0.1079 
     72 H72       -82.6437   28.5114  -74.5509 H         1 UNK         0.0837 
     73 H73       -82.7372   28.4378  -72.8286 H         1 UNK         0.0837 
     74 H74       -80.9416   29.7065  -71.7491 H         1 UNK         0.0685 
     75 H75       -80.6441   28.0700  -71.2017 H         1 UNK         0.0685 
     76 H76       -78.7905   30.7651  -73.0811 H         1 UNK         0.1434 
     77 H77       -75.2428   30.3430  -70.7156 H         1 UNK         0.1329 
     78 H78       -78.6165   27.7939  -69.9967 H         1 UNK         0.1335 
     79 H79       -75.6575   28.9546  -68.4383 H         1 UNK         0.0680 
     80 H80       -76.7144   27.5839  -68.6051 H         1 UNK         0.0680 
     81 H81       -72.4708   27.8840  -69.2805 H         1 UNK         0.1032 
     82 H82       -73.5497   29.2415  -69.2509 H         1 UNK         0.1032 
     83 H83       -73.6351   29.1577  -71.8023 H         1 UNK         0.0461 
     84 H84       -70.1646   28.9526  -71.7585 H         1 UNK         0.3453 
     85 H85       -69.8928   30.6298  -71.3561 H         1 UNK         0.3453 
     86 H86       -72.0817   26.7861  -71.5041 H         1 UNK         0.2984 
     87 H87       -70.3877   26.4028  -73.8629 H         1 UNK         0.0554 
     88 H88       -71.6732   24.9656  -72.3463 H         1 UNK         0.0847 
     89 H89       -71.6616   24.2140  -73.9268 H         1 UNK         0.0847 
     90 H90       -73.0988   25.0598  -73.3736 H         1 UNK         0.0847 
     91 H91       -72.7892   26.3076  -75.6423 H         1 UNK         0.3141 
     92 H92       -71.8544   28.0737  -77.8201 H         1 UNK         0.0743 
     93 H93       -69.7200   27.4566  -78.8623 H         1 UNK         0.0784 
     94 H94       -70.1966   25.7699  -78.9660 H         1 UNK         0.0784 
     95 H95       -71.0336   26.9891  -79.9271 H         1 UNK         0.0784 
     96 H96       -73.6600   26.8837  -78.1399 H         1 UNK         0.3213 
     97 H97       -74.5134   24.0916  -79.3916 H         1 UNK         0.0855 
     98 H98       -74.1368   22.4677  -77.5579 H         1 UNK         0.0814 
     99 H99       -75.8244   22.9409  -77.5982 H         1 UNK         0.0814 
    100 H100      -74.7463   23.6114  -76.3709 H         1 UNK         0.0814 
    101 H101      -75.5493   25.8729  -77.2255 H         1 UNK         0.3105 
    102 H102      -76.8517   28.1614  -79.4469 H         1 UNK         0.0547 
    103 H103      -78.7713   26.7171  -79.8754 H         1 UNK         0.0837 
    104 H104      -78.7412   26.0716  -78.2466 H         1 UNK         0.0837 
    105 H105      -79.1633   27.7613  -78.5191 H         1 UNK         0.0837 
    106 H106      -77.3394   27.5145  -76.6412 H         1 UNK         0.3020 
    107 H107      -74.3106   28.9548  -75.5126 H         1 UNK         0.1245 
    108 H108      -76.9813   30.3422  -75.0173 H         1 UNK         0.0781 
    109 H109      -75.8086   31.0463  -76.0982 H         1 UNK         0.0781 
    110 H110      -76.9866   32.3292  -73.3789 H         1 UNK         0.0836 
    111 H111      -75.8098   32.4781  -72.0988 H         1 UNK         0.0836 
    112 H112      -76.6089   28.2018  -74.0232 H         1 UNK         0.3022 
    113 H113      -75.3791   25.1329  -73.1823 H         1 UNK         0.0747 
    114 H114      -76.5236   27.0681  -72.1246 H         1 UNK         0.0793 
    115 H115      -77.9483   26.7949  -73.1229 H         1 UNK         0.0793 
    116 H116      -77.4467   25.5874  -71.9489 H         1 UNK         0.0793 
    117 H117      -76.6726   23.6688  -74.2493 H         1 UNK         0.3047 
    118 H118      -78.3138   23.6379  -77.0493 H         1 UNK         0.0822 
    119 H119      -78.3092   22.1631  -74.3481 H         1 UNK         0.0807 
    120 H120      -77.0191   22.1022  -75.5532 H         1 UNK         0.0807 
    121 H121      -78.5898   21.4240  -75.9180 H         1 UNK         0.0807 
    122 H122      -80.2883   24.1645  -74.9257 H         1 UNK         0.2946 
    123 H123      -82.9015   24.0880  -77.1773 H         1 UNK         0.1144 
    124 H124      -84.1427   22.3546  -75.8859 H         1 UNK         0.0793 
    125 H125      -82.6262   21.7176  -75.2464 H         1 UNK         0.0793 
    126 H126      -82.9803   21.6026  -76.9644 H         1 UNK         0.0793 
    127 H127      -82.7926   23.9693  -74.2705 H         1 UNK         0.2896 
@<TRIPOS>BOND
     1    1    2 1    
     2    1   67 1    
     3    1   68 1    
     4    1   69 1    
     5    2    3 2    
     6    2    4 am   BACKBONE|DICT|INTERRES
     7    4    5 1    
     8    4   70 1    
     9    5    6 1    
    10    5   65 1    
    11    5   71 1    
    12    6    7 1    
    13    6   72 1    
    14    6   73 1    
    15    7    8 1    
    16    8    9 1    
    17    8   74 1    
    18    8   75 1    
    19    9   10 ar   
    20    9   14 ar   
    21   10   11 ar   
    22   10   76 1    
    23   11   12 ar   
    24   11   48 1    
    25   12   13 ar   
    26   12   77 1    
    27   13   14 ar   
    28   13   15 1    
    29   14   78 1    
    30   15   16 1    
    31   15   79 1    
    32   15   80 1    
    33   16   17 1    
    34   17   18 1    
    35   17   81 1    
    36   17   82 1    
    37   18   19 1    
    38   18   22 1    
    39   18   83 1    
    40   19   20 am   BACKBONE|DICT|INTERRES
    41   19   21 2    
    42   20   84 1    
    43   20   85 1    
    44   22   23 am   BACKBONE|DICT|INTERRES
    45   22   86 1    
    46   23   24 2    
    47   23   25 1    
    48   25   26 1    
    49   25   27 1    
    50   25   87 1    
    51   26   88 1    
    52   26   89 1    
    53   26   90 1    
    54   27   28 am   BACKBONE|DICT|INTERRES
    55   27   91 1    
    56   28   29 2    
    57   28   30 1    
    58   30   31 1    
    59   30   32 1    
    60   30   92 1    
    61   31   93 1    
    62   31   94 1    
    63   31   95 1    
    64   32   33 am   BACKBONE|DICT|INTERRES
    65   32   96 1    
    66   33   34 2    
    67   33   35 1    
    68   35   36 1    
    69   35   37 1    
    70   35   97 1    
    71   36   98 1    
    72   36   99 1    
    73   36  100 1    
    74   37   38 am   BACKBONE|DICT|INTERRES
    75   37  101 1    
    76   38   39 2    
    77   38   40 1    
    78   40   41 1    
    79   40   42 1    
    80   40  102 1    
    81   41  103 1    
    82   41  104 1    
    83   41  105 1    
    84   42   43 am   BACKBONE|DICT|INTERRES
    85   42  106 1    
    86   43   44 2    
    87   43   45 1    
    88   45   46 1    
    89   45   49 1    
    90   45  107 1    
    91   46   47 1    
    92   46  108 1    
    93   46  109 1    
    94   47   48 1    
    95   48  110 1    
    96   48  111 1    
    97   49   50 am   BACKBONE|DICT|INTERRES
    98   49  112 1    
    99   50   51 2    
   100   50   52 1    
   101   52   53 1    
   102   52   54 1    
   103   52  113 1    
   104   53  114 1    
   105   53  115 1    
   106   53  116 1    
   107   54   55 am   BACKBONE|DICT|INTERRES
   108   54  117 1    
   109   55   56 2    
   110   55   57 1    
   111   57   58 1    
   112   57   59 1    
   113   57  118 1    
   114   58  119 1    
   115   58  120 1    
   116   58  121 1    
   117   59   60 am   BACKBONE|DICT|INTERRES
   118   59  122 1    
   119   60   61 2    
   120   60   62 1    
   121   62   63 1    
   122   62   64 1    
   123   62  123 1    
   124   63  124 1    
   125   63  125 1    
   126   63  126 1    
   127   64   65 am   BACKBONE|DICT|INTERRES
   128   64  127 1    
   129   65   66 2    
@<TRIPOS>SUBSTRUCTURE
     1 UNK         1 GROUP             0       ****    0 ROOT    
