@<TRIPOS>MOLECULE
3R135
127   129    1
SMALL
USER_CHARGES


@<TRIPOS>ATOM
      1 CA        -84.7966   30.4080  -71.8018 C.3       0 UNK        -0.1998 
      2 C         -83.6550   29.5614  -72.3436 C.2       0 UNK         0.4909 
      3 O         -83.9011   28.6247  -73.1049 O.2       0 UNK        -0.5240 
      4 N         -82.4126   29.8933  -71.9631 N.am      1 UNK        -0.4739 
      5 CA        -81.1426   29.2420  -72.3273 C.3       1 UNK         0.0864 
      6 C6        -81.0591   27.7451  -71.9200 C.3       11 UNK        -0.0881 
      7 S7        -81.0152   27.5596  -70.1025 S.3       11 UNK        -0.2682 
      8 C8        -79.9618   26.0801  -69.8731 C.3       11 UNK         0.0289 
      9 C9        -78.4837   26.2106  -70.2593 C.ar      11 UNK        -0.0687 
     10 C10       -77.6581   25.0917  -70.0971 C.ar      11 UNK        -0.0823 
     11 C11       -76.3100   25.1305  -70.4688 C.ar      11 UNK        -0.0830 
     12 C12       -75.7840   26.3001  -71.0227 C.ar      11 UNK        -0.1021 
     13 C13       -76.5943   27.4230  -71.1971 C.ar      11 UNK        -0.0753 
     14 C14       -77.9290   27.3824  -70.7906 C.ar      11 UNK        -0.0933 
     15 C15       -76.0465   28.6755  -71.8554 C.3       11 UNK         0.0166 
     16 S16       -76.5050   28.7040  -73.6130 S.3       11 UNK        -0.2615 
     17 C17       -75.8678   30.3442  -74.0959 C.3       11 UNK        -0.0865 
     18 CA        -75.5778   30.4778  -75.6150 C.3       10 UNK         0.0862 
     19 C         -74.9777   31.8827  -75.9160 C.2       10 UNK         0.5551 
     20 N         -73.6845   32.0026  -76.1936 N.am      10 UNK        -0.7319 
     21 O         -75.6991   32.8764  -75.8893 O.2       10 UNK        -0.5018 
     22 N         -74.7839   29.3433  -76.1076 N.am      10 UNK        -0.4509 
     23 C         -74.4741   29.0733  -77.3816 C.2       10 UNK         0.4899 
     24 O         -74.8641   29.7442  -78.3374 O.2       10 UNK        -0.4839 
     25 CA        -73.6017   27.8253  -77.6325 C.3       9 UNK         0.0222 
     26 CB        -72.5801   28.0438  -78.7673 C.3       9 UNK        -0.1966 
     27 N         -72.9438   27.3002  -76.4270 N.am      9 UNK        -0.4218 
     28 C         -72.0289   27.9096  -75.6542 C.2       9 UNK         0.5020 
     29 O         -71.5907   29.0421  -75.8592 O.2       9 UNK        -0.5274 
     30 CA        -71.5510   27.1280  -74.4222 C.3       8 UNK         0.0270 
     31 CB        -72.5804   27.2360  -73.2828 C.3       8 UNK        -0.1976 
     32 N         -71.3244   25.7206  -74.7522 N.am      8 UNK        -0.4313 
     33 C         -70.1722   25.2321  -75.2331 C.2       8 UNK         0.5041 
     34 O         -69.1405   25.8948  -75.3498 O.2       8 UNK        -0.5577 
     35 CA        -70.1652   23.7535  -75.6646 C.3       7 UNK         0.0284 
     36 CB        -69.7429   22.8526  -74.4926 C.3       7 UNK        -0.1958 
     37 N         -71.4599   23.3030  -76.1819 N.am      7 UNK        -0.4454 
     38 C         -72.0084   23.7181  -77.3329 C.2       7 UNK         0.5089 
     39 O         -71.4377   24.4530  -78.1381 O.2       7 UNK        -0.5125 
     40 CA        -73.4501   23.2600  -77.6242 C.3       6 UNK         0.0408 
     41 CB        -73.4466   22.0561  -78.5793 C.3       6 UNK        -0.1791 
     42 N         -74.2345   22.9280  -76.4265 N.am      6 UNK        -0.4762 
     43 C         -74.5587   23.7957  -75.4575 C.2       6 UNK         0.5007 
     44 O         -74.1856   24.9714  -75.4417 O.2       6 UNK        -0.5032 
     45 CA        -75.4174   23.2679  -74.3019 C.3       5 UNK         0.0783 
     46 C46       -74.6803   23.4251  -72.9499 C.3       11 UNK        -0.0857 
     47 S47       -75.6145   22.6740  -71.5741 S.3       11 UNK        -0.2512 
     48 C48       -75.4210   23.9137  -70.2545 C.3       11 UNK         0.0225 
     49 N         -76.6783   24.0044  -74.3440 N.am      5 UNK        -0.4615 
     50 C         -77.8586   23.4653  -74.6688 C.2       4 UNK         0.5053 
     51 O         -78.0297   22.2662  -74.8922 O.2       4 UNK        -0.5105 
     52 CA        -79.0576   24.4216  -74.7811 C.3       4 UNK         0.0263 
     53 CB        -79.7745   24.5425  -73.4293 C.3       4 UNK        -0.1981 
     54 N         -78.7120   25.7590  -75.2730 N.am      4 UNK        -0.4224 
     55 C         -78.2648   26.0258  -76.5090 C.2       3 UNK         0.4895 
     56 O         -78.0298   25.1606  -77.3546 O.2       3 UNK        -0.5091 
     57 CA        -78.0778   27.5163  -76.8530 C.3       3 UNK         0.0250 
     58 CB        -77.7708   27.7568  -78.3466 C.3       3 UNK        -0.1996 
     59 N         -79.2066   28.3507  -76.4138 N.am      3 UNK        -0.4254 
     60 C         -80.4921   28.2443  -76.7865 C.2       2 UNK         0.5004 
     61 O         -80.9180   27.3803  -77.5552 O.2       2 UNK        -0.5226 
     62 CA        -81.4656   29.2789  -76.1854 C.3       2 UNK         0.0269 
     63 CB        -82.8561   29.2389  -76.8471 C.3       2 UNK        -0.1926 
     64 N         -81.6347   29.1120  -74.7401 N.am      2 UNK        -0.4687 
     65 C         -80.7499   29.4663  -73.8023 C.2       1 UNK         0.5165 
     66 O         -79.6612   29.9761  -74.0680 O.2       1 UNK        -0.5079 
     67 H67       -85.3453   30.8674  -72.6235 H         1 UNK         0.0900 
     68 H68       -85.4885   29.7847  -71.2360 H         1 UNK         0.0900 
     69 H69       -84.4412   31.2019  -71.1450 H         1 UNK         0.0900 
     70 H70       -82.3033   30.6912  -71.3522 H         1 UNK         0.2959 
     71 H71       -80.3796   29.7726  -71.7545 H         1 UNK         0.1079 
     72 H72       -80.1669   27.2856  -72.3451 H         1 UNK         0.0837 
     73 H73       -81.8990   27.1723  -72.3143 H         1 UNK         0.0837 
     74 H74       -80.0158   25.7966  -68.8211 H         1 UNK         0.0685 
     75 H75       -80.4037   25.2558  -70.4347 H         1 UNK         0.0685 
     76 H76       -78.0680   24.1798  -69.6841 H         1 UNK         0.1434 
     77 H77       -74.7463   26.3375  -71.3227 H         1 UNK         0.1329 
     78 H78       -78.5294   28.2688  -70.9257 H         1 UNK         0.1335 
     79 H79       -74.9610   28.7194  -71.7566 H         1 UNK         0.0680 
     80 H80       -76.4442   29.5619  -71.3586 H         1 UNK         0.0680 
     81 H81       -74.9602   30.5463  -73.5231 H         1 UNK         0.1032 
     82 H82       -76.5988   31.0930  -73.7835 H         1 UNK         0.1032 
     83 H83       -76.5342   30.4329  -76.1395 H         1 UNK         0.0461 
     84 H84       -73.3006   32.9136  -76.3883 H         1 UNK         0.3453 
     85 H85       -73.0904   31.1866  -76.2126 H         1 UNK         0.3453 
     86 H86       -74.4316   28.7226  -75.3955 H         1 UNK         0.2984 
     87 H87       -74.2886   27.0418  -77.9556 H         1 UNK         0.0554 
     88 H88       -73.0807   28.2867  -79.7052 H         1 UNK         0.0847 
     89 H89       -71.9858   27.1468  -78.9424 H         1 UNK         0.0847 
     90 H90       -71.8951   28.8621  -78.5442 H         1 UNK         0.0847 
     91 H91       -73.2949   26.3961  -76.1144 H         1 UNK         0.3141 
     92 H92       -70.6171   27.5771  -74.0766 H         1 UNK         0.0743 
     93 H93       -72.7346   28.2778  -72.9983 H         1 UNK         0.0784 
     94 H94       -73.5524   26.8298  -73.5649 H         1 UNK         0.0784 
     95 H95       -72.2418   26.7055  -72.3928 H         1 UNK         0.0784 
     96 H96       -72.1355   25.1166  -74.7367 H         1 UNK         0.3213 
     97 H97       -69.4267   23.6469  -76.4625 H         1 UNK         0.0855 
     98 H98       -70.4520   22.9028  -73.6653 H         1 UNK         0.0814 
     99 H99       -68.7683   23.1518  -74.1041 H         1 UNK         0.0814 
    100 H100      -69.6592   21.8106  -74.8023 H         1 UNK         0.0814 
    101 H101      -71.9923   22.6693  -75.6042 H         1 UNK         0.3105 
    102 H102      -73.9546   24.0891  -78.1255 H         1 UNK         0.0547 
    103 H103      -72.8940   22.2838  -79.4922 H         1 UNK         0.0837 
    104 H104      -74.4585   21.7818  -78.8778 H         1 UNK         0.0837 
    105 H105      -72.9791   21.1809  -78.1263 H         1 UNK         0.0837 
    106 H106      -74.5829   21.9808  -76.3711 H         1 UNK         0.3020 
    107 H107      -75.5912   22.2012  -74.4610 H         1 UNK         0.1245 
    108 H108      -74.4856   24.4768  -72.7393 H         1 UNK         0.0781 
    109 H109      -73.7041   22.9377  -72.9856 H         1 UNK         0.0781 
    110 H110      -74.3727   24.2071  -70.1787 H         1 UNK         0.0836 
    111 H111      -75.6714   23.4485  -69.2999 H         1 UNK         0.0836 
    112 H112      -76.6125   25.0030  -74.2104 H         1 UNK         0.3022 
    113 H113      -79.7567   23.9810  -75.4953 H         1 UNK         0.0747 
    114 H114      -80.0488   23.5603  -73.0418 H         1 UNK         0.0793 
    115 H115      -79.1360   25.0175  -72.6859 H         1 UNK         0.0793 
    116 H116      -80.6930   25.1226  -73.5155 H         1 UNK         0.0793 
    117 H117      -78.8665   26.5327  -74.6439 H         1 UNK         0.3047 
    118 H118      -77.2073   27.8463  -76.2884 H         1 UNK         0.0822 
    119 H119      -77.6035   28.8143  -78.5507 H         1 UNK         0.0807 
    120 H120      -78.5830   27.4147  -78.9887 H         1 UNK         0.0807 
    121 H121      -76.8696   27.2237  -78.6516 H         1 UNK         0.0807 
    122 H122      -78.9931   29.0554  -75.7130 H         1 UNK         0.2946 
    123 H123      -81.0392   30.2670  -76.3746 H         1 UNK         0.1144 
    124 H124      -83.3579   28.2858  -76.6747 H         1 UNK         0.0793 
    125 H125      -82.7808   29.3794  -77.9263 H         1 UNK         0.0793 
    126 H126      -83.5005   30.0298  -76.4628 H         1 UNK         0.0793 
    127 H127      -82.5188   28.7270  -74.4165 H         1 UNK         0.2896 
@<TRIPOS>BOND
     1    1    2 1    
     2    1   67 1    
     3    1   68 1    
     4    1   69 1    
     5    2    3 2    
     6    2    4 am   BACKBONE|DICT|INTERRES
     7    4    5 1    
     8    4   70 1    
     9    5    6 1    
    10    5   65 1    
    11    5   71 1    
    12    6    7 1    
    13    6   72 1    
    14    6   73 1    
    15    7    8 1    
    16    8    9 1    
    17    8   74 1    
    18    8   75 1    
    19    9   10 ar   
    20    9   14 ar   
    21   10   11 ar   
    22   10   76 1    
    23   11   12 ar   
    24   11   48 1    
    25   12   13 ar   
    26   12   77 1    
    27   13   14 ar   
    28   13   15 1    
    29   14   78 1    
    30   15   16 1    
    31   15   79 1    
    32   15   80 1    
    33   16   17 1    
    34   17   18 1    
    35   17   81 1    
    36   17   82 1    
    37   18   19 1    
    38   18   22 1    
    39   18   83 1    
    40   19   20 am   BACKBONE|DICT|INTERRES
    41   19   21 2    
    42   20   84 1    
    43   20   85 1    
    44   22   23 am   BACKBONE|DICT|INTERRES
    45   22   86 1    
    46   23   24 2    
    47   23   25 1    
    48   25   26 1    
    49   25   27 1    
    50   25   87 1    
    51   26   88 1    
    52   26   89 1    
    53   26   90 1    
    54   27   28 am   BACKBONE|DICT|INTERRES
    55   27   91 1    
    56   28   29 2    
    57   28   30 1    
    58   30   31 1    
    59   30   32 1    
    60   30   92 1    
    61   31   93 1    
    62   31   94 1    
    63   31   95 1    
    64   32   33 am   BACKBONE|DICT|INTERRES
    65   32   96 1    
    66   33   34 2    
    67   33   35 1    
    68   35   36 1    
    69   35   37 1    
    70   35   97 1    
    71   36   98 1    
    72   36   99 1    
    73   36  100 1    
    74   37   38 am   BACKBONE|DICT|INTERRES
    75   37  101 1    
    76   38   39 2    
    77   38   40 1    
    78   40   41 1    
    79   40   42 1    
    80   40  102 1    
    81   41  103 1    
    82   41  104 1    
    83   41  105 1    
    84   42   43 am   BACKBONE|DICT|INTERRES
    85   42  106 1    
    86   43   44 2    
    87   43   45 1    
    88   45   46 1    
    89   45   49 1    
    90   45  107 1    
    91   46   47 1    
    92   46  108 1    
    93   46  109 1    
    94   47   48 1    
    95   48  110 1    
    96   48  111 1    
    97   49   50 am   BACKBONE|DICT|INTERRES
    98   49  112 1    
    99   50   51 2    
   100   50   52 1    
   101   52   53 1    
   102   52   54 1    
   103   52  113 1    
   104   53  114 1    
   105   53  115 1    
   106   53  116 1    
   107   54   55 am   BACKBONE|DICT|INTERRES
   108   54  117 1    
   109   55   56 2    
   110   55   57 1    
   111   57   58 1    
   112   57   59 1    
   113   57  118 1    
   114   58  119 1    
   115   58  120 1    
   116   58  121 1    
   117   59   60 am   BACKBONE|DICT|INTERRES
   118   59  122 1    
   119   60   61 2    
   120   60   62 1    
   121   62   63 1    
   122   62   64 1    
   123   62  123 1    
   124   63  124 1    
   125   63  125 1    
   126   63  126 1    
   127   64   65 am   BACKBONE|DICT|INTERRES
   128   64  127 1    
   129   65   66 2    
@<TRIPOS>SUBSTRUCTURE
     1 UNK         1 GROUP             0       ****    0 ROOT    
