@<TRIPOS>MOLECULE
3R135
127   129    1
SMALL
USER_CHARGES


@<TRIPOS>ATOM
      1 CA        -74.8650   21.7727  -72.4275 C.3       0 UNK        -0.1998 
      2 C         -76.1076   22.2063  -71.6646 C.2       0 UNK         0.4909 
      3 O         -76.7507   21.3780  -71.0180 O.2       0 UNK        -0.5240 
      4 N         -76.4375   23.5033  -71.7222 N.am      1 UNK        -0.4739 
      5 CA        -77.6261   24.0912  -71.0964 C.3       1 UNK         0.0864 
      6 C6        -77.4005   25.5890  -70.7564 C.3       11 UNK        -0.0881 
      7 S7        -77.3299   26.7231  -72.1905 S.3       11 UNK        -0.2682 
      8 C8        -78.7325   27.8212  -71.8060 C.3       11 UNK         0.0289 
      9 C9        -78.7306   29.0536  -72.6943 C.ar      11 UNK        -0.0687 
     10 C10       -79.4386   29.0560  -73.8996 C.ar      11 UNK        -0.0823 
     11 C11       -79.3977   30.1725  -74.7405 C.ar      11 UNK        -0.0830 
     12 C12       -78.6789   31.3050  -74.3468 C.ar      11 UNK        -0.1021 
     13 C13       -77.9922   31.3251  -73.1296 C.ar      11 UNK        -0.0753 
     14 C14       -78.0179   30.1939  -72.3089 C.ar      11 UNK        -0.0933 
     15 C15       -77.2383   32.5767  -72.7041 C.3       11 UNK         0.0166 
     16 S16       -75.5033   32.5427  -73.2517 S.3       11 UNK        -0.2615 
     17 C17       -74.7028   31.7009  -71.8433 C.3       11 UNK        -0.0865 
     18 CA        -73.1506   31.6774  -71.9720 C.3       10 UNK         0.0862 
     19 C         -72.4405   31.2397  -70.6528 C.2       10 UNK         0.5551 
     20 N         -71.2954   30.5707  -70.7107 N.am      10 UNK        -0.7319 
     21 O         -72.9113   31.5421  -69.5587 O.2       10 UNK        -0.5018 
     22 N         -72.6911   30.9806  -73.1900 N.am      10 UNK        -0.4509 
     23 C         -72.8572   29.6787  -73.4585 C.2       10 UNK         0.4899 
     24 O         -73.3944   28.8847  -72.6833 O.2       10 UNK        -0.4839 
     25 CA        -72.3614   29.2133  -74.8418 C.3       9 UNK         0.0222 
     26 CB        -70.8581   29.4913  -75.0614 C.3       9 UNK        -0.1966 
     27 N         -72.7033   27.8124  -75.1109 N.am      9 UNK        -0.4218 
     28 C         -72.1848   26.7010  -74.5650 C.2       9 UNK         0.5020 
     29 O         -71.2026   26.6759  -73.8218 O.2       9 UNK        -0.5274 
     30 CA        -72.8903   25.3794  -74.9077 C.3       8 UNK         0.0270 
     31 CB        -74.0731   25.1446  -73.9548 C.3       8 UNK        -0.1976 
     32 N         -73.3774   25.3662  -76.2884 N.am      8 UNK        -0.4313 
     33 C         -72.7222   24.8263  -77.3251 C.2       8 UNK         0.5041 
     34 O         -71.6530   24.2235  -77.2214 O.2       8 UNK        -0.5577 
     35 CA        -73.3615   24.9741  -78.7186 C.3       7 UNK         0.0284 
     36 CB        -74.1610   23.7114  -79.0791 C.3       7 UNK        -0.1958 
     37 N         -74.2243   26.1550  -78.8271 N.am      7 UNK        -0.4454 
     38 C         -73.7568   27.4099  -78.9236 C.2       7 UNK         0.5089 
     39 O         -72.5599   27.6818  -79.0204 O.2       7 UNK        -0.5125 
     40 CA        -74.7752   28.5674  -78.8824 C.3       6 UNK         0.0408 
     41 CB        -75.0584   29.0805  -80.3029 C.3       6 UNK        -0.1791 
     42 N         -76.0481   28.2543  -78.2250 N.am      6 UNK        -0.4762 
     43 C         -76.1942   27.8288  -76.9629 C.2       6 UNK         0.5007 
     44 O         -75.2446   27.6221  -76.2072 O.2       6 UNK        -0.5032 
     45 CA        -77.6196   27.5127  -76.4634 C.3       5 UNK         0.0783 
     46 C46       -78.7822   28.0079  -77.3693 C.3       11 UNK        -0.0857 
     47 S47       -78.9513   29.8233  -77.4462 S.3       11 UNK        -0.2512 
     48 C48       -80.1131   30.1600  -76.0827 C.3       11 UNK         0.0225 
     49 N         -77.7775   26.0879  -76.1548 N.am      5 UNK        -0.4615 
     50 C         -77.5186   25.0620  -76.9792 C.2       4 UNK         0.5053 
     51 O         -76.9913   25.1752  -78.0869 O.2       4 UNK        -0.5105 
     52 CA        -77.9578   23.6715  -76.4954 C.3       4 UNK         0.0263 
     53 CB        -76.9282   23.0939  -75.5135 C.3       4 UNK        -0.1981 
     54 N         -79.2986   23.6710  -75.8917 N.am      4 UNK        -0.4224 
     55 C         -80.4224   23.9690  -76.5688 C.2       3 UNK         0.4895 
     56 O         -80.4292   24.2801  -77.7608 O.2       3 UNK        -0.5091 
     57 CA        -81.7783   23.8899  -75.8407 C.3       3 UNK         0.0250 
     58 CB        -82.6395   22.7584  -76.4289 C.3       3 UNK        -0.1996 
     59 N         -81.6828   23.6955  -74.3950 N.am      3 UNK        -0.4254 
     60 C         -81.4161   24.6551  -73.5008 C.2       2 UNK         0.5004 
     61 O         -81.1847   25.8266  -73.8017 O.2       2 UNK        -0.5226 
     62 CA        -81.3872   24.2360  -72.0151 C.3       2 UNK         0.0269 
     63 CB        -81.9665   22.8281  -71.7433 C.3       2 UNK        -0.1926 
     64 N         -80.0456   24.3429  -71.4285 N.am      2 UNK        -0.4687 
     65 C         -78.9093   23.8237  -71.9192 C.2       1 UNK         0.5165 
     66 O         -78.8576   23.1717  -72.9668 O.2       1 UNK        -0.5079 
     67 H67       -75.1074   21.5914  -73.4742 H         1 UNK         0.0900 
     68 H68       -74.4612   20.8515  -72.0080 H         1 UNK         0.0900 
     69 H69       -74.0840   22.5305  -72.3749 H         1 UNK         0.0900 
     70 H70       -75.8918   24.1385  -72.2848 H         1 UNK         0.2959 
     71 H71       -77.7780   23.5750  -70.1454 H         1 UNK         0.1079 
     72 H72       -76.4640   25.6975  -70.2067 H         1 UNK         0.0837 
     73 H73       -78.1675   25.9277  -70.0585 H         1 UNK         0.0837 
     74 H74       -79.6672   27.2710  -71.9225 H         1 UNK         0.0685 
     75 H75       -78.6819   28.1297  -70.7606 H         1 UNK         0.0685 
     76 H76       -79.9923   28.1754  -74.1972 H         1 UNK         0.1434 
     77 H77       -78.6480   32.1710  -74.9943 H         1 UNK         0.1329 
     78 H78       -77.4795   30.1978  -71.3712 H         1 UNK         0.1335 
     79 H79       -77.2916   32.7049  -71.6219 H         1 UNK         0.0680 
     80 H80       -77.7186   33.4575  -73.1331 H         1 UNK         0.0680 
     81 H81       -75.0990   30.6886  -71.7541 H         1 UNK         0.1032 
     82 H82       -75.0016   32.2257  -70.9342 H         1 UNK         0.1032 
     83 H83       -72.8313   32.7117  -72.1049 H         1 UNK         0.0461 
     84 H84       -70.8992   30.3178  -71.6014 H         1 UNK         0.3453 
     85 H85       -70.8351   30.3015  -69.8556 H         1 UNK         0.3453 
     86 H86       -72.2418   31.5662  -73.8787 H         1 UNK         0.2984 
     87 H87       -72.9188   29.7900  -75.5816 H         1 UNK         0.0554 
     88 H88       -70.5152   29.0809  -76.0114 H         1 UNK         0.0847 
     89 H89       -70.2427   29.0623  -74.2702 H         1 UNK         0.0847 
     90 H90       -70.6516   30.5615  -75.0843 H         1 UNK         0.0847 
     91 H91       -73.5791   27.6993  -75.6191 H         1 UNK         0.3141 
     92 H92       -72.1734   24.5691  -74.7581 H         1 UNK         0.0743 
     93 H93       -74.8412   25.9124  -74.0605 H         1 UNK         0.0784 
     94 H94       -74.5336   24.1773  -74.1449 H         1 UNK         0.0784 
     95 H95       -73.7435   25.1550  -72.9150 H         1 UNK         0.0784 
     96 H96       -74.2199   25.8994  -76.4728 H         1 UNK         0.3213 
     97 H97       -72.5505   25.0750  -79.4435 H         1 UNK         0.0855 
     98 H98       -74.9497   23.5084  -78.3547 H         1 UNK         0.0814 
     99 H99       -73.5112   22.8355  -79.1013 H         1 UNK         0.0814 
    100 H100      -74.6218   23.7980  -80.0632 H         1 UNK         0.0814 
    101 H101      -75.2253   26.0036  -78.7382 H         1 UNK         0.3105 
    102 H102      -74.3132   29.3776  -78.3146 H         1 UNK         0.0547 
    103 H103      -75.5527   28.3240  -80.9137 H         1 UNK         0.0837 
    104 H104      -75.6913   29.9679  -80.2872 H         1 UNK         0.0837 
    105 H105      -74.1329   29.3554  -80.8111 H         1 UNK         0.0837 
    106 H106      -76.8835   28.3855  -78.7777 H         1 UNK         0.3020 
    107 H107      -77.6825   28.0259  -75.5065 H         1 UNK         0.1245 
    108 H108      -78.6846   27.6159  -78.3832 H         1 UNK         0.0781 
    109 H109      -79.7264   27.6005  -77.0040 H         1 UNK         0.0781 
    110 H110      -80.5789   31.1321  -76.2520 H         1 UNK         0.0836 
    111 H111      -80.9262   29.4324  -76.0882 H         1 UNK         0.0836 
    112 H112      -78.1822   25.8786  -75.2533 H         1 UNK         0.3022 
    113 H113      -77.9919   23.0165  -77.3686 H         1 UNK         0.0747 
    114 H114      -77.2024   22.0879  -75.1954 H         1 UNK         0.0793 
    115 H115      -75.9404   23.0332  -75.9722 H         1 UNK         0.0793 
    116 H116      -76.8380   23.7131  -74.6216 H         1 UNK         0.0793 
    117 H117      -79.3565   23.4333  -74.9052 H         1 UNK         0.3047 
    118 H118      -82.2919   24.8359  -76.0258 H         1 UNK         0.0822 
    119 H119      -83.6305   22.7360  -75.9750 H         1 UNK         0.0807 
    120 H120      -82.1785   21.7811  -76.2803 H         1 UNK         0.0807 
    121 H121      -82.7825   22.8906  -77.5024 H         1 UNK         0.0807 
    122 H122      -81.8201   22.7546  -74.0551 H         1 UNK         0.2946 
    123 H123      -82.0180   24.9578  -71.4932 H         1 UNK         0.1144 
    124 H124      -82.0218   22.6321  -70.6724 H         1 UNK         0.0793 
    125 H125      -81.3597   22.0374  -72.1865 H         1 UNK         0.0793 
    126 H126      -82.9811   22.7333  -72.1331 H         1 UNK         0.0793 
    127 H127      -79.9920   24.8864  -70.5789 H         1 UNK         0.2896 
@<TRIPOS>BOND
     1    1    2 1    
     2    1   67 1    
     3    1   68 1    
     4    1   69 1    
     5    2    3 2    
     6    2    4 am   BACKBONE|DICT|INTERRES
     7    4    5 1    
     8    4   70 1    
     9    5    6 1    
    10    5   65 1    
    11    5   71 1    
    12    6    7 1    
    13    6   72 1    
    14    6   73 1    
    15    7    8 1    
    16    8    9 1    
    17    8   74 1    
    18    8   75 1    
    19    9   10 ar   
    20    9   14 ar   
    21   10   11 ar   
    22   10   76 1    
    23   11   12 ar   
    24   11   48 1    
    25   12   13 ar   
    26   12   77 1    
    27   13   14 ar   
    28   13   15 1    
    29   14   78 1    
    30   15   16 1    
    31   15   79 1    
    32   15   80 1    
    33   16   17 1    
    34   17   18 1    
    35   17   81 1    
    36   17   82 1    
    37   18   19 1    
    38   18   22 1    
    39   18   83 1    
    40   19   20 am   BACKBONE|DICT|INTERRES
    41   19   21 2    
    42   20   84 1    
    43   20   85 1    
    44   22   23 am   BACKBONE|DICT|INTERRES
    45   22   86 1    
    46   23   24 2    
    47   23   25 1    
    48   25   26 1    
    49   25   27 1    
    50   25   87 1    
    51   26   88 1    
    52   26   89 1    
    53   26   90 1    
    54   27   28 am   BACKBONE|DICT|INTERRES
    55   27   91 1    
    56   28   29 2    
    57   28   30 1    
    58   30   31 1    
    59   30   32 1    
    60   30   92 1    
    61   31   93 1    
    62   31   94 1    
    63   31   95 1    
    64   32   33 am   BACKBONE|DICT|INTERRES
    65   32   96 1    
    66   33   34 2    
    67   33   35 1    
    68   35   36 1    
    69   35   37 1    
    70   35   97 1    
    71   36   98 1    
    72   36   99 1    
    73   36  100 1    
    74   37   38 am   BACKBONE|DICT|INTERRES
    75   37  101 1    
    76   38   39 2    
    77   38   40 1    
    78   40   41 1    
    79   40   42 1    
    80   40  102 1    
    81   41  103 1    
    82   41  104 1    
    83   41  105 1    
    84   42   43 am   BACKBONE|DICT|INTERRES
    85   42  106 1    
    86   43   44 2    
    87   43   45 1    
    88   45   46 1    
    89   45   49 1    
    90   45  107 1    
    91   46   47 1    
    92   46  108 1    
    93   46  109 1    
    94   47   48 1    
    95   48  110 1    
    96   48  111 1    
    97   49   50 am   BACKBONE|DICT|INTERRES
    98   49  112 1    
    99   50   51 2    
   100   50   52 1    
   101   52   53 1    
   102   52   54 1    
   103   52  113 1    
   104   53  114 1    
   105   53  115 1    
   106   53  116 1    
   107   54   55 am   BACKBONE|DICT|INTERRES
   108   54  117 1    
   109   55   56 2    
   110   55   57 1    
   111   57   58 1    
   112   57   59 1    
   113   57  118 1    
   114   58  119 1    
   115   58  120 1    
   116   58  121 1    
   117   59   60 am   BACKBONE|DICT|INTERRES
   118   59  122 1    
   119   60   61 2    
   120   60   62 1    
   121   62   63 1    
   122   62   64 1    
   123   62  123 1    
   124   63  124 1    
   125   63  125 1    
   126   63  126 1    
   127   64   65 am   BACKBONE|DICT|INTERRES
   128   64  127 1    
   129   65   66 2    
@<TRIPOS>SUBSTRUCTURE
     1 UNK         1 GROUP             0       ****    0 ROOT    
