@<TRIPOS>MOLECULE
3R135
127   129    1
SMALL
USER_CHARGES


@<TRIPOS>ATOM
      1 CA        -81.3391   26.3698  -72.7424 C.3       0 UNK        -0.1998 
      2 C         -81.2710   26.8006  -74.1990 C.2       0 UNK         0.4909 
      3 O         -82.2303   26.6030  -74.9456 O.2       0 UNK        -0.5240 
      4 N         -80.1391   27.3779  -74.6158 N.am      1 UNK        -0.4739 
      5 CA        -79.8553   27.8059  -75.9867 C.3       1 UNK         0.0864 
      6 C6        -78.6701   28.8099  -76.0538 C.3       11 UNK        -0.0881 
      7 S7        -77.1820   28.3074  -75.1168 S.3       11 UNK        -0.2682 
      8 C8        -77.4275   29.2063  -73.5531 C.3       11 UNK         0.0289 
      9 C9        -76.6628   28.5457  -72.4178 C.ar      11 UNK        -0.0687 
     10 C10       -76.9574   27.2295  -72.0519 C.ar      11 UNK        -0.0823 
     11 C11       -76.2460   26.5972  -71.0298 C.ar      11 UNK        -0.0830 
     12 C12       -75.2503   27.3029  -70.3468 C.ar      11 UNK        -0.1021 
     13 C13       -74.9577   28.6264  -70.6931 C.ar      11 UNK        -0.0753 
     14 C14       -75.6652   29.2418  -71.7308 C.ar      11 UNK        -0.0933 
     15 C15       -73.8816   29.4005  -69.9503 C.3       11 UNK         0.0166 
     16 S16       -72.3458   29.4812  -70.9235 S.3       11 UNK        -0.2615 
     17 C17       -71.8772   31.2310  -70.6931 C.3       11 UNK        -0.0865 
     18 CA        -72.5255   32.1720  -71.7555 C.3       10 UNK         0.0862 
     19 C         -72.2725   33.6891  -71.4873 C.2       10 UNK         0.5551 
     20 N         -72.2996   34.1293  -70.2358 N.am      10 UNK        -0.7319 
     21 O         -72.1041   34.4914  -72.4045 O.2       10 UNK        -0.5018 
     22 N         -72.2231   31.7638  -73.1387 N.am      10 UNK        -0.4509 
     23 C         -71.0209   31.7620  -73.7269 C.2       10 UNK         0.4899 
     24 O         -69.9721   32.0743  -73.1594 O.2       10 UNK        -0.4839 
     25 CA        -70.9939   31.3040  -75.1976 C.3       9 UNK         0.0222 
     26 CB        -69.6073   31.4738  -75.8474 C.3       9 UNK        -0.1966 
     27 N         -71.4117   29.9061  -75.3277 N.am      9 UNK        -0.4218 
     28 C         -72.6790   29.4750  -75.3411 C.2       9 UNK         0.5020 
     29 O         -73.6583   30.2189  -75.2359 O.2       9 UNK        -0.5274 
     30 CA        -72.8753   27.9547  -75.4481 C.3       8 UNK         0.0270 
     31 CB        -73.0383   27.3305  -74.0553 C.3       8 UNK        -0.1976 
     32 N         -74.0390   27.6195  -76.2679 N.am      8 UNK        -0.4313 
     33 C         -74.0804   27.7314  -77.6010 C.2       8 UNK         0.5041 
     34 O         -73.1099   28.0557  -78.2901 O.2       8 UNK        -0.5577 
     35 CA        -75.4354   27.4186  -78.2634 C.3       7 UNK         0.0284 
     36 CB        -75.4089   27.5669  -79.8000 C.3       7 UNK        -0.1958 
     37 N         -75.9695   26.1060  -77.8770 N.am      7 UNK        -0.4454 
     38 C         -75.4225   24.9028  -78.0982 C.2       7 UNK         0.5089 
     39 O         -74.3277   24.7207  -78.6344 O.2       7 UNK        -0.5125 
     40 CA        -76.2772   23.7025  -77.6519 C.3       6 UNK         0.0408 
     41 CB        -75.8612   22.3791  -78.3295 C.3       6 UNK        -0.1791 
     42 N         -76.3215   23.5621  -76.1922 N.am      6 UNK        -0.4762 
     43 C         -75.3128   23.2637  -75.3595 C.2       6 UNK         0.5007 
     44 O         -74.1508   23.0948  -75.7297 O.2       6 UNK        -0.5032 
     45 CA        -75.6361   23.0658  -73.8586 C.3       5 UNK         0.0783 
     46 C46       -75.1767   24.2900  -73.0296 C.3       11 UNK        -0.0857 
     47 S47       -75.2408   24.0082  -71.2255 S.3       11 UNK        -0.2512 
     48 C48       -76.5539   25.1479  -70.6796 C.3       11 UNK         0.0225 
     49 N         -77.0142   22.6274  -73.5762 N.am      5 UNK        -0.4615 
     50 C         -78.1501   23.3199  -73.7124 C.2       4 UNK         0.5053 
     51 O         -78.2159   24.4769  -74.1290 O.2       4 UNK        -0.5105 
     52 CA        -79.4363   22.5904  -73.3255 C.3       4 UNK         0.0263 
     53 CB        -79.8020   22.8633  -71.8553 C.3       4 UNK        -0.1981 
     54 N         -80.5019   23.0455  -74.2126 N.am      4 UNK        -0.4224 
     55 C         -81.6013   22.3474  -74.5191 C.2       3 UNK         0.4895 
     56 O         -81.8604   21.2413  -74.0428 O.2       3 UNK        -0.5091 
     57 CA        -82.5895   22.9730  -75.5179 C.3       3 UNK         0.0250 
     58 CB        -83.7979   23.5688  -74.7766 C.3       3 UNK        -0.1996 
     59 N         -81.9916   23.9996  -76.3784 N.am      3 UNK        -0.4254 
     60 C         -81.2702   23.7325  -77.4790 C.2       2 UNK         0.5004 
     61 O         -80.9816   22.5917  -77.8410 O.2       2 UNK        -0.5226 
     62 CA        -80.8104   24.9223  -78.3411 C.3       2 UNK         0.0269 
     63 CB        -81.7598   25.1133  -79.5352 C.3       2 UNK        -0.1926 
     64 N         -80.7462   26.1708  -77.5795 N.am      2 UNK        -0.4687 
     65 C         -79.6714   26.5690  -76.8892 C.2       1 UNK         0.5165 
     66 O         -78.5933   25.9761  -76.9157 O.2       1 UNK        -0.5079 
     67 H67       -82.0376   27.0042  -72.1978 H         1 UNK         0.0900 
     68 H68       -81.6880   25.3407  -72.6694 H         1 UNK         0.0900 
     69 H69       -80.3667   26.4333  -72.2543 H         1 UNK         0.0900 
     70 H70       -79.3514   27.4460  -73.9889 H         1 UNK         0.2959 
     71 H71       -80.7342   28.3431  -76.3509 H         1 UNK         0.1079 
     72 H72       -78.9998   29.7811  -75.6813 H         1 UNK         0.0837 
     73 H73       -78.3814   28.9887  -77.0910 H         1 UNK         0.0837 
     74 H74       -78.4856   29.2350  -73.2916 H         1 UNK         0.0685 
     75 H75       -77.1128   30.2420  -73.6902 H         1 UNK         0.0685 
     76 H76       -77.7196   26.6828  -72.5899 H         1 UNK         0.1434 
     77 H77       -74.6969   26.8164  -69.5551 H         1 UNK         0.1329 
     78 H78       -75.4298   30.2601  -72.0079 H         1 UNK         0.1335 
     79 H79       -73.6684   28.9413  -68.9838 H         1 UNK         0.0680 
     80 H80       -74.2539   30.4036  -69.7373 H         1 UNK         0.0680 
     81 H81       -72.1496   31.5234  -69.6785 H         1 UNK         0.1032 
     82 H82       -70.7894   31.3031  -70.7354 H         1 UNK         0.1032 
     83 H83       -73.6068   32.0618  -71.6691 H         1 UNK         0.0461 
     84 H84       -72.1562   35.1125  -70.0646 H         1 UNK         0.3453 
     85 H85       -72.4711   33.5096  -69.4605 H         1 UNK         0.3453 
     86 H86       -73.0124   31.4579  -73.6972 H         1 UNK         0.2984 
     87 H87       -71.6937   31.9364  -75.7482 H         1 UNK         0.0554 
     88 H88       -69.2750   32.5114  -75.7911 H         1 UNK         0.0847 
     89 H89       -69.6269   31.1997  -76.9024 H         1 UNK         0.0847 
     90 H90       -68.8497   30.8623  -75.3554 H         1 UNK         0.0847 
     91 H91       -70.6697   29.2220  -75.3712 H         1 UNK         0.3141 
     92 H92       -71.9900   27.5189  -75.9166 H         1 UNK         0.0743 
     93 H93       -72.2178   27.6157  -73.3958 H         1 UNK         0.0784 
     94 H94       -73.0328   26.2446  -74.1194 H         1 UNK         0.0784 
     95 H95       -73.9666   27.6415  -73.5739 H         1 UNK         0.0784 
     96 H96       -74.9006   27.4218  -75.7767 H         1 UNK         0.3213 
     97 H97       -76.1374   28.1616  -77.8850 H         1 UNK         0.0855 
     98 H98       -74.7033   26.8767  -80.2635 H         1 UNK         0.0814 
     99 H99       -75.1113   28.5758  -80.0881 H         1 UNK         0.0814 
    100 H100      -76.3922   27.3836  -80.2331 H         1 UNK         0.0814 
    101 H101      -76.8818   26.1187  -77.4176 H         1 UNK         0.3105 
    102 H102      -77.3007   23.9063  -77.9694 H         1 UNK         0.0547 
    103 H103      -76.5180   21.5603  -78.0365 H         1 UNK         0.0837 
    104 H104      -74.8381   22.0932  -78.0842 H         1 UNK         0.0837 
    105 H105      -75.9177   22.4675  -79.4150 H         1 UNK         0.0837 
    106 H106      -77.2072   23.8020  -75.7577 H         1 UNK         0.3020 
    107 H107      -75.0110   22.2256  -73.5501 H         1 UNK         0.1245 
    108 H108      -75.7432   25.1765  -73.3117 H         1 UNK         0.0781 
    109 H109      -74.1353   24.5157  -73.2573 H         1 UNK         0.0781 
    110 H110      -76.6754   25.0561  -69.5995 H         1 UNK         0.0836 
    111 H111      -77.5017   24.8357  -71.1196 H         1 UNK         0.0836 
    112 H112      -77.0845   21.6774  -73.2393 H         1 UNK         0.3022 
    113 H113      -79.2875   21.5179  -73.4698 H         1 UNK         0.0747 
    114 H114      -80.7258   22.3580  -71.5732 H         1 UNK         0.0793 
    115 H115      -79.0195   22.5031  -71.1862 H         1 UNK         0.0793 
    116 H116      -79.9297   23.9282  -71.6614 H         1 UNK         0.0793 
    117 H117      -80.3172   23.9262  -74.6761 H         1 UNK         0.3047 
    118 H118      -82.9578   22.1643  -76.1533 H         1 UNK         0.0822 
    119 H119      -84.5327   23.9713  -75.4739 H         1 UNK         0.0807 
    120 H120      -83.5053   24.3705  -74.0987 H         1 UNK         0.0807 
    121 H121      -84.3025   22.8080  -74.1794 H         1 UNK         0.0807 
    122 H122      -82.1612   24.9659  -76.1157 H         1 UNK         0.2946 
    123 H123      -79.8195   24.6785  -78.7320 H         1 UNK         0.1144 
    124 H124      -81.4173   25.9157  -80.1889 H         1 UNK         0.0793 
    125 H125      -82.7742   25.3518  -79.2128 H         1 UNK         0.0793 
    126 H126      -81.8144   24.2065  -80.1394 H         1 UNK         0.0793 
    127 H127      -81.6086   26.6888  -77.4790 H         1 UNK         0.2896 
@<TRIPOS>BOND
     1    1    2 1    
     2    1   67 1    
     3    1   68 1    
     4    1   69 1    
     5    2    3 2    
     6    2    4 am   BACKBONE|DICT|INTERRES
     7    4    5 1    
     8    4   70 1    
     9    5    6 1    
    10    5   65 1    
    11    5   71 1    
    12    6    7 1    
    13    6   72 1    
    14    6   73 1    
    15    7    8 1    
    16    8    9 1    
    17    8   74 1    
    18    8   75 1    
    19    9   10 ar   
    20    9   14 ar   
    21   10   11 ar   
    22   10   76 1    
    23   11   12 ar   
    24   11   48 1    
    25   12   13 ar   
    26   12   77 1    
    27   13   14 ar   
    28   13   15 1    
    29   14   78 1    
    30   15   16 1    
    31   15   79 1    
    32   15   80 1    
    33   16   17 1    
    34   17   18 1    
    35   17   81 1    
    36   17   82 1    
    37   18   19 1    
    38   18   22 1    
    39   18   83 1    
    40   19   20 am   BACKBONE|DICT|INTERRES
    41   19   21 2    
    42   20   84 1    
    43   20   85 1    
    44   22   23 am   BACKBONE|DICT|INTERRES
    45   22   86 1    
    46   23   24 2    
    47   23   25 1    
    48   25   26 1    
    49   25   27 1    
    50   25   87 1    
    51   26   88 1    
    52   26   89 1    
    53   26   90 1    
    54   27   28 am   BACKBONE|DICT|INTERRES
    55   27   91 1    
    56   28   29 2    
    57   28   30 1    
    58   30   31 1    
    59   30   32 1    
    60   30   92 1    
    61   31   93 1    
    62   31   94 1    
    63   31   95 1    
    64   32   33 am   BACKBONE|DICT|INTERRES
    65   32   96 1    
    66   33   34 2    
    67   33   35 1    
    68   35   36 1    
    69   35   37 1    
    70   35   97 1    
    71   36   98 1    
    72   36   99 1    
    73   36  100 1    
    74   37   38 am   BACKBONE|DICT|INTERRES
    75   37  101 1    
    76   38   39 2    
    77   38   40 1    
    78   40   41 1    
    79   40   42 1    
    80   40  102 1    
    81   41  103 1    
    82   41  104 1    
    83   41  105 1    
    84   42   43 am   BACKBONE|DICT|INTERRES
    85   42  106 1    
    86   43   44 2    
    87   43   45 1    
    88   45   46 1    
    89   45   49 1    
    90   45  107 1    
    91   46   47 1    
    92   46  108 1    
    93   46  109 1    
    94   47   48 1    
    95   48  110 1    
    96   48  111 1    
    97   49   50 am   BACKBONE|DICT|INTERRES
    98   49  112 1    
    99   50   51 2    
   100   50   52 1    
   101   52   53 1    
   102   52   54 1    
   103   52  113 1    
   104   53  114 1    
   105   53  115 1    
   106   53  116 1    
   107   54   55 am   BACKBONE|DICT|INTERRES
   108   54  117 1    
   109   55   56 2    
   110   55   57 1    
   111   57   58 1    
   112   57   59 1    
   113   57  118 1    
   114   58  119 1    
   115   58  120 1    
   116   58  121 1    
   117   59   60 am   BACKBONE|DICT|INTERRES
   118   59  122 1    
   119   60   61 2    
   120   60   62 1    
   121   62   63 1    
   122   62   64 1    
   123   62  123 1    
   124   63  124 1    
   125   63  125 1    
   126   63  126 1    
   127   64   65 am   BACKBONE|DICT|INTERRES
   128   64  127 1    
   129   65   66 2    
@<TRIPOS>SUBSTRUCTURE
     1 UNK         1 GROUP             0       ****    0 ROOT    
