@<TRIPOS>MOLECULE
3R135
127   129    1
SMALL
USER_CHARGES


@<TRIPOS>ATOM
      1 CA        -83.2234   29.6778  -77.1647 C.3       0 UNK        -0.1998 
      2 C         -82.5769   29.0918  -75.9185 C.2       0 UNK         0.4909 
      3 O         -83.2824   28.7641  -74.9646 O.2       0 UNK        -0.5240 
      4 N         -81.2431   28.9482  -75.9319 N.am      1 UNK        -0.4739 
      5 CA        -80.3945   28.4467  -74.8354 C.3       1 UNK         0.0864 
      6 C6        -80.4462   29.3364  -73.5584 C.3       11 UNK        -0.0881 
      7 S7        -79.7771   31.0161  -73.8249 S.3       11 UNK        -0.2682 
      8 C8        -77.9804   30.7298  -73.9890 C.3       11 UNK         0.0289 
      9 C9        -77.3696   30.0690  -72.7605 C.ar      11 UNK        -0.0687 
     10 C10       -77.3003   28.6759  -72.6773 C.ar      11 UNK        -0.0823 
     11 C11       -76.7807   28.0523  -71.5413 C.ar      11 UNK        -0.0830 
     12 C12       -76.2925   28.8367  -70.4928 C.ar      11 UNK        -0.1021 
     13 C13       -76.3337   30.2326  -70.5719 C.ar      11 UNK        -0.0753 
     14 C14       -76.8765   30.8437  -71.7069 C.ar      11 UNK        -0.0933 
     15 C15       -75.8269   31.0834  -69.4169 C.3       11 UNK         0.0166 
     16 S16       -74.1683   31.7609  -69.7379 S.3       11 UNK        -0.2615 
     17 C17       -73.1175   30.2702  -69.6282 C.3       11 UNK        -0.0865 
     18 CA        -72.3261   29.9965  -70.9345 C.3       10 UNK         0.0862 
     19 C         -71.3020   28.8353  -70.7478 C.2       10 UNK         0.5551 
     20 N         -71.2743   27.8096  -71.5915 N.am      10 UNK        -0.7319 
     21 O         -70.5028   28.8709  -69.8151 O.2       10 UNK        -0.5018 
     22 N         -73.2147   29.8365  -72.0973 N.am      10 UNK        -0.4509 
     23 C         -72.8510   30.0883  -73.3582 C.2       10 UNK         0.4899 
     24 O         -71.7745   30.5955  -73.6824 O.2       10 UNK        -0.4839 
     25 CA        -73.8598   29.6953  -74.4494 C.3       9 UNK         0.0222 
     26 CB        -74.5535   30.9435  -75.0159 C.3       9 UNK        -0.1966 
     27 N         -73.2175   28.9619  -75.5433 N.am      9 UNK        -0.4218 
     28 C         -72.5222   27.8231  -75.4188 C.2       9 UNK         0.5020 
     29 O         -72.3898   27.2149  -74.3542 O.2       9 UNK        -0.5274 
     30 CA        -71.8816   27.2760  -76.7069 C.3       8 UNK         0.0270 
     31 CB        -71.1015   25.9675  -76.4764 C.3       8 UNK        -0.1976 
     32 N         -72.8827   27.0636  -77.7565 N.am      8 UNK        -0.4313 
     33 C         -73.3169   28.0096  -78.6021 C.2       8 UNK         0.5041 
     34 O         -72.9543   29.1852  -78.5350 O.2       8 UNK        -0.5577 
     35 CA        -74.3130   27.5992  -79.7034 C.3       7 UNK         0.0284 
     36 CB        -73.5741   27.3761  -81.0331 C.3       7 UNK        -0.1958 
     37 N         -75.0821   26.3974  -79.3752 N.am      7 UNK        -0.4454 
     38 C         -76.1071   26.3708  -78.5143 C.2       7 UNK         0.5089 
     39 O         -76.5518   27.3731  -77.9521 O.2       7 UNK        -0.5125 
     40 CA        -76.7273   24.9973  -78.1864 C.3       6 UNK         0.0408 
     41 CB        -76.2294   23.8302  -79.0696 C.3       6 UNK        -0.1791 
     42 N         -76.5512   24.6875  -76.7653 N.am      6 UNK        -0.4762 
     43 C         -75.3843   24.6194  -76.1029 C.2       6 UNK         0.5007 
     44 O         -74.2859   24.6880  -76.6560 O.2       6 UNK        -0.5032 
     45 CA        -75.4433   24.4688  -74.5745 C.3       5 UNK         0.0783 
     46 C46       -75.6240   25.8535  -73.9122 C.3       11 UNK        -0.0857 
     47 S47       -75.2739   25.8045  -72.1235 S.3       11 UNK        -0.2512 
     48 C48       -76.7860   26.5342  -71.4286 C.3       11 UNK         0.0225 
     49 N         -76.5092   23.5357  -74.2016 N.am      5 UNK        -0.4615 
     50 C         -76.3132   22.3576  -73.5962 C.2       4 UNK         0.5053 
     51 O         -75.2169   21.9542  -73.2066 O.2       4 UNK        -0.5105 
     52 CA        -77.5500   21.4581  -73.4079 C.3       4 UNK         0.0263 
     53 CB        -78.2103   21.7348  -72.0474 C.3       4 UNK        -0.1981 
     54 N         -78.5470   21.6199  -74.4696 N.am      4 UNK        -0.4224 
     55 C         -78.3417   21.3517  -75.7676 C.2       3 UNK         0.4895 
     56 O         -77.3226   20.8121  -76.1995 O.2       3 UNK        -0.5091 
     57 CA        -79.4401   21.7691  -76.7644 C.3       3 UNK         0.0250 
     58 CB        -80.1521   20.5281  -77.3284 C.3       3 UNK        -0.1996 
     59 N         -80.4508   22.7026  -76.2472 N.am      3 UNK        -0.4254 
     60 C         -80.2257   23.9456  -75.7980 C.2       2 UNK         0.5004 
     61 O         -79.0973   24.4252  -75.6562 O.2       2 UNK        -0.5226 
     62 CA        -81.4856   24.7583  -75.4492 C.3       2 UNK         0.0269 
     63 CB        -82.1353   24.2596  -74.1408 C.3       2 UNK        -0.1926 
     64 N         -81.2507   26.2091  -75.4255 N.am      2 UNK        -0.4687 
     65 C         -80.5793   26.9408  -74.5219 C.2       1 UNK         0.5165 
     66 O         -80.0816   26.4758  -73.4952 O.2       1 UNK        -0.5079 
     67 H67       -82.4888   29.9133  -77.9347 H         1 UNK         0.0900 
     68 H68       -83.7559   30.5948  -76.9136 H         1 UNK         0.0900 
     69 H69       -83.9399   28.9718  -77.5839 H         1 UNK         0.0900 
     70 H70       -80.7363   29.2352  -76.7583 H         1 UNK         0.2959 
     71 H71       -79.3783   28.4922  -75.2262 H         1 UNK         0.1079 
     72 H72       -79.9174   28.8871  -72.7190 H         1 UNK         0.0837 
     73 H73       -81.4736   29.4358  -73.2070 H         1 UNK         0.0837 
     74 H74       -77.7796   30.1324  -74.8788 H         1 UNK         0.0685 
     75 H75       -77.4984   31.6924  -74.1648 H         1 UNK         0.0685 
     76 H76       -77.6904   28.0754  -73.4850 H         1 UNK         0.1434 
     77 H77       -75.8956   28.3578  -69.6080 H         1 UNK         0.1329 
     78 H78       -76.9236   31.9226  -71.7644 H         1 UNK         0.1335 
     79 H79       -76.5164   31.9123  -69.2503 H         1 UNK         0.0680 
     80 H80       -75.8135   30.5107  -68.4881 H         1 UNK         0.0680 
     81 H81       -73.7156   29.4002  -69.3559 H         1 UNK         0.1032 
     82 H82       -72.4300   30.4264  -68.7947 H         1 UNK         0.1032 
     83 H83       -71.7141   30.8827  -71.1134 H         1 UNK         0.0461 
     84 H84       -71.8872   27.7670  -72.3978 H         1 UNK         0.3453 
     85 H85       -70.5999   27.0763  -71.4449 H         1 UNK         0.3453 
     86 H86       -74.1229   29.4344  -71.9113 H         1 UNK         0.2984 
     87 H87       -74.6186   29.0427  -74.0133 H         1 UNK         0.0554 
     88 H88       -75.3332   30.6764  -75.7293 H         1 UNK         0.0847 
     89 H89       -75.0217   31.5231  -74.2195 H         1 UNK         0.0847 
     90 H90       -73.8463   31.6025  -75.5214 H         1 UNK         0.0847 
     91 H91       -73.2488   29.3827  -76.4658 H         1 UNK         0.3141 
     92 H92       -71.1619   28.0242  -77.0463 H         1 UNK         0.0743 
     93 H93       -70.3041   26.1140  -75.7467 H         1 UNK         0.0784 
     94 H94       -71.7439   25.1720  -76.0982 H         1 UNK         0.0784 
     95 H95       -70.6363   25.6147  -77.3969 H         1 UNK         0.0784 
     96 H96       -73.3134   26.1448  -77.7769 H         1 UNK         0.3213 
     97 H97       -75.0093   28.4301  -79.8384 H         1 UNK         0.0855 
     98 H98       -73.0141   28.2669  -81.3216 H         1 UNK         0.0814 
     99 H99       -74.2704   27.1579  -81.8431 H         1 UNK         0.0814 
    100 H100      -72.8627   26.5518  -80.9683 H         1 UNK         0.0814 
    101 H101      -74.7707   25.5270  -79.7816 H         1 UNK         0.3105 
    102 H102      -77.8015   25.0984  -78.3481 H         1 UNK         0.0547 
    103 H103      -76.4267   24.0224  -80.1250 H         1 UNK         0.0837 
    104 H104      -75.1609   23.6442  -78.9572 H         1 UNK         0.0837 
    105 H105      -76.7457   22.9047  -78.8148 H         1 UNK         0.0837 
    106 H106      -77.4228   24.6479  -76.2391 H         1 UNK         0.3020 
    107 H107      -74.4694   24.0748  -74.2733 H         1 UNK         0.1245 
    108 H108      -74.9539   26.5922  -74.3512 H         1 UNK         0.0781 
    109 H109      -76.6347   26.2179  -74.0953 H         1 UNK         0.0781 
    110 H110      -76.8629   26.2424  -70.3801 H         1 UNK         0.0836 
    111 H111      -77.6651   26.1140  -71.9207 H         1 UNK         0.0836 
    112 H112      -77.4463   23.7759  -74.5028 H         1 UNK         0.3022 
    113 H113      -77.2104   20.4203  -73.4236 H         1 UNK         0.0747 
    114 H114      -79.0419   21.0545  -71.8628 H         1 UNK         0.0793 
    115 H115      -77.4962   21.5998  -71.2337 H         1 UNK         0.0793 
    116 H116      -78.5886   22.7562  -71.9820 H         1 UNK         0.0793 
    117 H117      -79.4202   22.0548  -74.2113 H         1 UNK         0.3047 
    118 H118      -78.9324   22.2731  -77.5894 H         1 UNK         0.0822 
    119 H119      -80.8521   20.7958  -78.1202 H         1 UNK         0.0807 
    120 H120      -80.7055   19.9945  -76.5546 H         1 UNK         0.0807 
    121 H121      -79.4361   19.8263  -77.7589 H         1 UNK         0.0807 
    122 H122      -81.4079   22.3843  -76.3061 H         1 UNK         0.2946 
    123 H123      -82.2006   24.5968  -76.2580 H         1 UNK         0.1144 
    124 H124      -82.9985   24.8679  -73.8702 H         1 UNK         0.0793 
    125 H125      -81.4378   24.2770  -73.3028 H         1 UNK         0.0793 
    126 H126      -82.4864   23.2322  -74.2423 H         1 UNK         0.0793 
    127 H127      -81.5906   26.7093  -76.2346 H         1 UNK         0.2896 
@<TRIPOS>BOND
     1    1    2 1    
     2    1   67 1    
     3    1   68 1    
     4    1   69 1    
     5    2    3 2    
     6    2    4 am   BACKBONE|DICT|INTERRES
     7    4    5 1    
     8    4   70 1    
     9    5    6 1    
    10    5   65 1    
    11    5   71 1    
    12    6    7 1    
    13    6   72 1    
    14    6   73 1    
    15    7    8 1    
    16    8    9 1    
    17    8   74 1    
    18    8   75 1    
    19    9   10 ar   
    20    9   14 ar   
    21   10   11 ar   
    22   10   76 1    
    23   11   12 ar   
    24   11   48 1    
    25   12   13 ar   
    26   12   77 1    
    27   13   14 ar   
    28   13   15 1    
    29   14   78 1    
    30   15   16 1    
    31   15   79 1    
    32   15   80 1    
    33   16   17 1    
    34   17   18 1    
    35   17   81 1    
    36   17   82 1    
    37   18   19 1    
    38   18   22 1    
    39   18   83 1    
    40   19   20 am   BACKBONE|DICT|INTERRES
    41   19   21 2    
    42   20   84 1    
    43   20   85 1    
    44   22   23 am   BACKBONE|DICT|INTERRES
    45   22   86 1    
    46   23   24 2    
    47   23   25 1    
    48   25   26 1    
    49   25   27 1    
    50   25   87 1    
    51   26   88 1    
    52   26   89 1    
    53   26   90 1    
    54   27   28 am   BACKBONE|DICT|INTERRES
    55   27   91 1    
    56   28   29 2    
    57   28   30 1    
    58   30   31 1    
    59   30   32 1    
    60   30   92 1    
    61   31   93 1    
    62   31   94 1    
    63   31   95 1    
    64   32   33 am   BACKBONE|DICT|INTERRES
    65   32   96 1    
    66   33   34 2    
    67   33   35 1    
    68   35   36 1    
    69   35   37 1    
    70   35   97 1    
    71   36   98 1    
    72   36   99 1    
    73   36  100 1    
    74   37   38 am   BACKBONE|DICT|INTERRES
    75   37  101 1    
    76   38   39 2    
    77   38   40 1    
    78   40   41 1    
    79   40   42 1    
    80   40  102 1    
    81   41  103 1    
    82   41  104 1    
    83   41  105 1    
    84   42   43 am   BACKBONE|DICT|INTERRES
    85   42  106 1    
    86   43   44 2    
    87   43   45 1    
    88   45   46 1    
    89   45   49 1    
    90   45  107 1    
    91   46   47 1    
    92   46  108 1    
    93   46  109 1    
    94   47   48 1    
    95   48  110 1    
    96   48  111 1    
    97   49   50 am   BACKBONE|DICT|INTERRES
    98   49  112 1    
    99   50   51 2    
   100   50   52 1    
   101   52   53 1    
   102   52   54 1    
   103   52  113 1    
   104   53  114 1    
   105   53  115 1    
   106   53  116 1    
   107   54   55 am   BACKBONE|DICT|INTERRES
   108   54  117 1    
   109   55   56 2    
   110   55   57 1    
   111   57   58 1    
   112   57   59 1    
   113   57  118 1    
   114   58  119 1    
   115   58  120 1    
   116   58  121 1    
   117   59   60 am   BACKBONE|DICT|INTERRES
   118   59  122 1    
   119   60   61 2    
   120   60   62 1    
   121   62   63 1    
   122   62   64 1    
   123   62  123 1    
   124   63  124 1    
   125   63  125 1    
   126   63  126 1    
   127   64   65 am   BACKBONE|DICT|INTERRES
   128   64  127 1    
   129   65   66 2    
@<TRIPOS>SUBSTRUCTURE
     1 UNK         1 GROUP             0       ****    0 ROOT    
