@<TRIPOS>MOLECULE
3R135
127   129    1
SMALL
USER_CHARGES


@<TRIPOS>ATOM
      1 CA        -85.2420   30.2688  -75.5174 C.3       0 UNK        -0.1998 
      2 C         -83.9510   29.4637  -75.5144 C.2       0 UNK         0.4909 
      3 O         -83.4744   29.0666  -76.5788 O.2       0 UNK        -0.5240 
      4 N         -83.3772   29.2287  -74.3280 N.am      1 UNK        -0.4739 
      5 CA        -82.1586   28.4347  -74.1287 C.3       1 UNK         0.0864 
      6 C6        -81.5373   28.6713  -72.7294 C.3       11 UNK        -0.0881 
      7 S7        -81.1164   30.4247  -72.4431 S.3       11 UNK        -0.2682 
      8 C8        -80.5604   30.3883  -70.7095 C.3       11 UNK         0.0289 
      9 C9        -79.1930   29.7358  -70.5753 C.ar      11 UNK        -0.0687 
     10 C10       -79.0881   28.3825  -70.2433 C.ar      11 UNK        -0.0823 
     11 C11       -77.8357   27.7674  -70.1686 C.ar      11 UNK        -0.0830 
     12 C12       -76.6808   28.5279  -70.3774 C.ar      11 UNK        -0.1021 
     13 C13       -76.7711   29.8835  -70.7081 C.ar      11 UNK        -0.0753 
     14 C14       -78.0322   30.4810  -70.8052 C.ar      11 UNK        -0.0933 
     15 C15       -75.5139   30.7033  -70.9718 C.3       11 UNK         0.0166 
     16 S16       -74.7670   30.3069  -72.5885 S.3       11 UNK        -0.2615 
     17 C17       -73.4985   29.0749  -72.1247 C.3       11 UNK        -0.0865 
     18 CA        -72.0577   29.6611  -72.1954 C.3       10 UNK         0.0862 
     19 C         -71.0049   28.7876  -71.4415 C.2       10 UNK         0.5551 
     20 N         -69.7448   28.7680  -71.8589 N.am      10 UNK        -0.7319 
     21 O         -71.3203   28.1490  -70.4401 O.2       10 UNK        -0.5018 
     22 N         -71.6697   30.0625  -73.5632 N.am      10 UNK        -0.4509 
     23 C         -71.4607   29.2365  -74.5976 C.2       10 UNK         0.4899 
     24 O         -71.5754   28.0104  -74.5397 O.2       10 UNK        -0.4839 
     25 CA        -71.0209   29.8987  -75.9110 C.3       9 UNK         0.0222 
     26 CB        -69.6038   30.4938  -75.7962 C.3       9 UNK        -0.1966 
     27 N         -71.0494   28.9049  -76.9803 N.am      9 UNK        -0.4218 
     28 C         -71.2161   29.1421  -78.2844 C.2       9 UNK         0.5020 
     29 O         -71.3331   30.2733  -78.7582 O.2       9 UNK        -0.5274 
     30 CA        -71.2878   27.9288  -79.2342 C.3       8 UNK         0.0270 
     31 CB        -69.8943   27.5749  -79.7905 C.3       8 UNK        -0.1976 
     32 N         -71.9696   26.7487  -78.6784 N.am      8 UNK        -0.4313 
     33 C         -71.5921   25.9374  -77.6806 C.2       8 UNK         0.5041 
     34 O         -70.5296   26.0558  -77.0685 O.2       8 UNK        -0.5577 
     35 CA        -72.6135   24.8639  -77.2595 C.3       7 UNK         0.0284 
     36 CB        -72.0794   23.9335  -76.1549 C.3       7 UNK        -0.1958 
     37 N         -73.8500   25.4873  -76.7861 N.am      7 UNK        -0.4454 
     38 C         -74.8225   25.9906  -77.5535 C.2       7 UNK         0.5089 
     39 O         -74.7846   25.9525  -78.7855 O.2       7 UNK        -0.5125 
     40 CA        -75.9995   26.6862  -76.8357 C.3       6 UNK         0.0408 
     41 CB        -77.1851   26.9511  -77.7817 C.3       6 UNK        -0.1791 
     42 N         -76.4954   25.9642  -75.6603 N.am      6 UNK        -0.4762 
     43 C         -75.8916   25.8719  -74.4671 C.2       6 UNK         0.5007 
     44 O         -74.7793   26.3397  -74.2284 O.2       6 UNK        -0.5032 
     45 CA        -76.6480   25.1107  -73.3662 C.3       5 UNK         0.0783 
     46 C46       -77.7698   25.9973  -72.7800 C.3       11 UNK        -0.0857 
     47 S47       -78.5147   25.2942  -71.2676 S.3       11 UNK        -0.2512 
     48 C48       -77.7289   26.2662  -69.9334 C.3       11 UNK         0.0225 
     49 N         -77.1540   23.8387  -73.8838 N.am      5 UNK        -0.4615 
     50 C         -76.4058   22.7431  -74.0675 C.2       4 UNK         0.5053 
     51 O         -75.2189   22.6634  -73.7510 O.2       4 UNK        -0.5105 
     52 CA        -77.0958   21.5266  -74.7100 C.3       4 UNK         0.0263 
     53 CB        -77.6732   20.6039  -73.6245 C.3       4 UNK        -0.1981 
     54 N         -78.1621   21.9035  -75.6413 N.am      4 UNK        -0.4224 
     55 C         -77.9598   22.4521  -76.8484 C.2       3 UNK         0.4895 
     56 O         -76.8480   22.6280  -77.3461 O.2       3 UNK        -0.5091 
     57 CA        -79.2128   22.9052  -77.6208 C.3       3 UNK         0.0250 
     58 CB        -79.7266   21.7740  -78.5260 C.3       3 UNK        -0.1996 
     59 N         -80.3035   23.3746  -76.7553 N.am      3 UNK        -0.4254 
     60 C         -80.2223   24.4471  -75.9571 C.2       2 UNK         0.5004 
     61 O         -79.2091   25.1421  -75.8465 O.2       2 UNK        -0.5226 
     62 CA        -81.4455   24.7711  -75.0961 C.3       2 UNK         0.0269 
     63 CB        -81.4378   23.9259  -73.8078 C.3       2 UNK        -0.1926 
     64 N         -81.4013   26.1944  -74.7704 N.am      2 UNK        -0.4687 
     65 C         -82.4348   26.9322  -74.3540 C.2       1 UNK         0.5165 
     66 O         -83.5566   26.4681  -74.1293 O.2       1 UNK        -0.5079 
     67 H67       -85.1207   31.1706  -76.1169 H         1 UNK         0.0900 
     68 H68       -85.5383   30.5675  -74.5119 H         1 UNK         0.0900 
     69 H69       -86.0507   29.6788  -75.9479 H         1 UNK         0.0900 
     70 H70       -83.8148   29.5714  -73.4850 H         1 UNK         0.2959 
     71 H71       -81.4323   28.7530  -74.8805 H         1 UNK         0.1079 
     72 H72       -82.2184   28.3387  -71.9434 H         1 UNK         0.0837 
     73 H73       -80.6248   28.0820  -72.6191 H         1 UNK         0.0837 
     74 H74       -80.5152   31.4112  -70.3329 H         1 UNK         0.0685 
     75 H75       -81.2993   29.8705  -70.0958 H         1 UNK         0.0685 
     76 H76       -79.9823   27.7944  -70.0872 H         1 UNK         0.1434 
     77 H77       -75.7124   28.0534  -70.3179 H         1 UNK         0.1329 
     78 H78       -78.1143   31.5257  -71.0728 H         1 UNK         0.1335 
     79 H79       -75.7526   31.7679  -70.9603 H         1 UNK         0.0680 
     80 H80       -74.7922   30.5528  -70.1676 H         1 UNK         0.0680 
     81 H81       -73.5926   28.2078  -72.7790 H         1 UNK         0.1032 
     82 H82       -73.7152   28.7071  -71.1222 H         1 UNK         0.1032 
     83 H83       -72.0695   30.5899  -71.6236 H         1 UNK         0.0461 
     84 H84       -69.0676   28.2124  -71.3606 H         1 UNK         0.3453 
     85 H85       -69.4690   29.2936  -72.6722 H         1 UNK         0.3453 
     86 H86       -71.5431   31.0546  -73.7021 H         1 UNK         0.2984 
     87 H87       -71.7350   30.6924  -76.1404 H         1 UNK         0.0554 
     88 H88       -69.2970   30.9699  -76.7277 H         1 UNK         0.0847 
     89 H89       -68.8657   29.7275  -75.5559 H         1 UNK         0.0847 
     90 H90       -69.5518   31.2556  -75.0177 H         1 UNK         0.0847 
     91 H91       -70.9616   27.9377  -76.6715 H         1 UNK         0.3141 
     92 H92       -71.9029   28.2406  -80.0799 H         1 UNK         0.0743 
     93 H93       -69.4539   28.4305  -80.3041 H         1 UNK         0.0784 
     94 H94       -69.2007   27.2819  -79.0019 H         1 UNK         0.0784 
     95 H95       -69.9498   26.7582  -80.5102 H         1 UNK         0.0784 
     96 H96       -72.9006   26.5773  -79.0505 H         1 UNK         0.3213 
     97 H97       -72.8336   24.2527  -78.1375 H         1 UNK         0.0855 
     98 H98       -71.1680   23.4279  -76.4764 H         1 UNK         0.0814 
     99 H99       -72.8069   23.1623  -75.9001 H         1 UNK         0.0814 
    100 H100      -71.8443   24.4850  -75.2432 H         1 UNK         0.0814 
    101 H101      -73.9331   25.6414  -75.7844 H         1 UNK         0.3105 
    102 H102      -75.6262   27.6550  -76.4978 H         1 UNK         0.0547 
    103 H103      -76.8843   27.5646  -78.6319 H         1 UNK         0.0837 
    104 H104      -77.5958   26.0210  -78.1765 H         1 UNK         0.0837 
    105 H105      -77.9900   27.4809  -77.2720 H         1 UNK         0.0837 
    106 H106      -77.4188   25.5458  -75.7600 H         1 UNK         0.3020 
    107 H107      -75.9290   24.9026  -72.5699 H         1 UNK         0.1245 
    108 H108      -78.5707   26.1371  -73.5063 H         1 UNK         0.0781 
    109 H109      -77.3924   26.9999  -72.5814 H         1 UNK         0.0781 
    110 H110      -76.6854   25.9596  -69.8455 H         1 UNK         0.0836 
    111 H111      -78.2032   26.0158  -68.9835 H         1 UNK         0.0836 
    112 H112      -78.1104   23.8379  -74.2049 H         1 UNK         0.3022 
    113 H113      -76.3368   20.9703  -75.2646 H         1 UNK         0.0747 
    114 H114      -78.1060   19.7023  -74.0584 H         1 UNK         0.0793 
    115 H115      -76.8943   20.2853  -72.9301 H         1 UNK         0.0793 
    116 H116      -78.4473   21.1017  -73.0388 H         1 UNK         0.0793 
    117 H117      -79.1125   21.7750  -75.3268 H         1 UNK         0.3047 
    118 H118      -78.9141   23.7412  -78.2572 H         1 UNK         0.0822 
    119 H119      -80.5540   22.1103  -79.1512 H         1 UNK         0.0807 
    120 H120      -80.0688   20.9151  -77.9474 H         1 UNK         0.0807 
    121 H121      -78.9400   21.4230  -79.1957 H         1 UNK         0.0807 
    122 H122      -81.1651   22.8477  -76.7855 H         1 UNK         0.2946 
    123 H123      -82.3490   24.5638  -75.6744 H         1 UNK         0.1144 
    124 H124      -82.3083   24.1364  -73.1864 H         1 UNK         0.0793 
    125 H125      -80.5482   24.1161  -73.2068 H         1 UNK         0.0793 
    126 H126      -81.4584   22.8594  -74.0346 H         1 UNK         0.0793 
    127 H127      -80.5064   26.6270  -74.9660 H         1 UNK         0.2896 
@<TRIPOS>BOND
     1    1    2 1    
     2    1   67 1    
     3    1   68 1    
     4    1   69 1    
     5    2    3 2    
     6    2    4 am   BACKBONE|DICT|INTERRES
     7    4    5 1    
     8    4   70 1    
     9    5    6 1    
    10    5   65 1    
    11    5   71 1    
    12    6    7 1    
    13    6   72 1    
    14    6   73 1    
    15    7    8 1    
    16    8    9 1    
    17    8   74 1    
    18    8   75 1    
    19    9   10 ar   
    20    9   14 ar   
    21   10   11 ar   
    22   10   76 1    
    23   11   12 ar   
    24   11   48 1    
    25   12   13 ar   
    26   12   77 1    
    27   13   14 ar   
    28   13   15 1    
    29   14   78 1    
    30   15   16 1    
    31   15   79 1    
    32   15   80 1    
    33   16   17 1    
    34   17   18 1    
    35   17   81 1    
    36   17   82 1    
    37   18   19 1    
    38   18   22 1    
    39   18   83 1    
    40   19   20 am   BACKBONE|DICT|INTERRES
    41   19   21 2    
    42   20   84 1    
    43   20   85 1    
    44   22   23 am   BACKBONE|DICT|INTERRES
    45   22   86 1    
    46   23   24 2    
    47   23   25 1    
    48   25   26 1    
    49   25   27 1    
    50   25   87 1    
    51   26   88 1    
    52   26   89 1    
    53   26   90 1    
    54   27   28 am   BACKBONE|DICT|INTERRES
    55   27   91 1    
    56   28   29 2    
    57   28   30 1    
    58   30   31 1    
    59   30   32 1    
    60   30   92 1    
    61   31   93 1    
    62   31   94 1    
    63   31   95 1    
    64   32   33 am   BACKBONE|DICT|INTERRES
    65   32   96 1    
    66   33   34 2    
    67   33   35 1    
    68   35   36 1    
    69   35   37 1    
    70   35   97 1    
    71   36   98 1    
    72   36   99 1    
    73   36  100 1    
    74   37   38 am   BACKBONE|DICT|INTERRES
    75   37  101 1    
    76   38   39 2    
    77   38   40 1    
    78   40   41 1    
    79   40   42 1    
    80   40  102 1    
    81   41  103 1    
    82   41  104 1    
    83   41  105 1    
    84   42   43 am   BACKBONE|DICT|INTERRES
    85   42  106 1    
    86   43   44 2    
    87   43   45 1    
    88   45   46 1    
    89   45   49 1    
    90   45  107 1    
    91   46   47 1    
    92   46  108 1    
    93   46  109 1    
    94   47   48 1    
    95   48  110 1    
    96   48  111 1    
    97   49   50 am   BACKBONE|DICT|INTERRES
    98   49  112 1    
    99   50   51 2    
   100   50   52 1    
   101   52   53 1    
   102   52   54 1    
   103   52  113 1    
   104   53  114 1    
   105   53  115 1    
   106   53  116 1    
   107   54   55 am   BACKBONE|DICT|INTERRES
   108   54  117 1    
   109   55   56 2    
   110   55   57 1    
   111   57   58 1    
   112   57   59 1    
   113   57  118 1    
   114   58  119 1    
   115   58  120 1    
   116   58  121 1    
   117   59   60 am   BACKBONE|DICT|INTERRES
   118   59  122 1    
   119   60   61 2    
   120   60   62 1    
   121   62   63 1    
   122   62   64 1    
   123   62  123 1    
   124   63  124 1    
   125   63  125 1    
   126   63  126 1    
   127   64   65 am   BACKBONE|DICT|INTERRES
   128   64  127 1    
   129   65   66 2    
@<TRIPOS>SUBSTRUCTURE
     1 UNK         1 GROUP             0       ****    0 ROOT    
