@<TRIPOS>MOLECULE
3R135
127   129    1
SMALL
USER_CHARGES


@<TRIPOS>ATOM
      1 CA        -85.3456   28.4328  -70.9335 C.3       0 UNK        -0.1998 
      2 C         -84.8625   28.7258  -72.3463 C.2       0 UNK         0.4909 
      3 O         -85.3070   29.7001  -72.9549 O.2       0 UNK        -0.5240 
      4 N         -83.9628   27.8881  -72.8719 N.am      1 UNK        -0.4739 
      5 CA        -83.3953   28.0080  -74.2187 C.3       1 UNK         0.0864 
      6 C6        -82.3572   29.1549  -74.3768 C.3       11 UNK        -0.0881 
      7 S7        -81.0631   29.2109  -73.0862 S.3       11 UNK        -0.2682 
      8 C8        -79.6200   28.6070  -74.0093 C.3       11 UNK         0.0289 
      9 C9        -78.3965   28.4992  -73.1138 C.ar      11 UNK        -0.0687 
     10 C10       -78.3064   27.4525  -72.1942 C.ar      11 UNK        -0.0823 
     11 C11       -77.1907   27.3292  -71.3622 C.ar      11 UNK        -0.0830 
     12 C12       -76.1635   28.2728  -71.4477 C.ar      11 UNK        -0.1021 
     13 C13       -76.2399   29.3276  -72.3631 C.ar      11 UNK        -0.0753 
     14 C14       -77.3588   29.4338  -73.1976 C.ar      11 UNK        -0.0933 
     15 C15       -75.1391   30.3790  -72.4073 C.3       11 UNK         0.0166 
     16 S16       -73.5221   29.6844  -72.8811 S.3       11 UNK        -0.2615 
     17 C17       -72.4561   31.1562  -72.6793 C.3       11 UNK        -0.0865 
     18 CA        -71.8945   31.6720  -74.0383 C.3       10 UNK         0.0862 
     19 C         -71.2876   33.1104  -73.9715 C.2       10 UNK         0.5551 
     20 N         -71.9032   34.0305  -73.2398 N.am      10 UNK        -0.7319 
     21 O         -70.2936   33.4280  -74.6232 O.2       10 UNK        -0.5018 
     22 N         -71.0053   30.6875  -74.6802 N.am      10 UNK        -0.4509 
     23 C         -69.7931   30.3032  -74.2606 C.2       10 UNK         0.4899 
     24 O         -69.2687   30.6842  -73.2120 O.2       10 UNK        -0.4839 
     25 CA        -69.0547   29.2978  -75.1665 C.3       9 UNK         0.0222 
     26 CB        -67.5432   29.2439  -74.8743 C.3       9 UNK        -0.1966 
     27 N         -69.6123   27.9498  -75.0389 N.am      9 UNK        -0.4218 
     28 C         -70.7878   27.5501  -75.5404 C.2       9 UNK         0.5020 
     29 O         -71.5215   28.2787  -76.2143 O.2       9 UNK        -0.5274 
     30 CA        -71.2061   26.1063  -75.2017 C.3       8 UNK         0.0270 
     31 CB        -71.5514   25.9822  -73.7070 C.3       8 UNK        -0.1976 
     32 N         -72.3565   25.6630  -75.9935 N.am      8 UNK        -0.4313 
     33 C         -72.3195   25.3822  -77.3055 C.2       8 UNK         0.5041 
     34 O         -71.2755   25.3474  -77.9604 O.2       8 UNK        -0.5577 
     35 CA        -73.6509   25.0732  -78.0229 C.3       7 UNK         0.0284 
     36 CB        -73.7520   23.5751  -78.3546 C.3       7 UNK        -0.1958 
     37 N         -74.8400   25.4662  -77.2665 N.am      7 UNK        -0.4454 
     38 C         -75.2209   26.7238  -77.0042 C.2       7 UNK         0.5089 
     39 O         -74.6757   27.7174  -77.4834 O.2       7 UNK        -0.5125 
     40 CA        -76.4136   26.9077  -76.0445 C.3       6 UNK         0.0408 
     41 CB        -77.6656   27.2644  -76.8613 C.3       6 UNK        -0.1791 
     42 N         -76.7000   25.7431  -75.1922 N.am      6 UNK        -0.4762 
     43 C         -75.8481   25.1772  -74.3201 C.2       6 UNK         0.5007 
     44 O         -74.6989   25.5786  -74.1435 O.2       6 UNK        -0.5032 
     45 CA        -76.3127   23.8875  -73.6108 C.3       5 UNK         0.0783 
     46 C46       -77.1041   24.1465  -72.3089 C.3       11 UNK        -0.0857 
     47 S47       -76.0764   24.8157  -70.9584 S.3       11 UNK        -0.2512 
     48 C48       -77.1047   26.1919  -70.3550 C.3       11 UNK         0.0225 
     49 N         -77.0939   23.0614  -74.5311 N.am      5 UNK        -0.4615 
     50 C         -76.5738   22.1798  -75.3934 C.2       4 UNK         0.5053 
     51 O         -75.3736   21.9183  -75.4636 O.2       4 UNK        -0.5105 
     52 CA        -77.5557   21.4737  -76.3457 C.3       4 UNK         0.0263 
     53 CB        -78.0198   20.1378  -75.7434 C.3       4 UNK        -0.1981 
     54 N         -78.7276   22.2911  -76.6731 N.am      4 UNK        -0.4224 
     55 C         -78.6880   23.4030  -77.4208 C.2       3 UNK         0.4895 
     56 O         -77.6664   23.8283  -77.9599 O.2       3 UNK        -0.5091 
     57 CA        -80.0024   24.1907  -77.5683 C.3       3 UNK         0.0250 
     58 CB        -80.7853   23.6983  -78.7958 C.3       3 UNK        -0.1996 
     59 N         -80.8773   24.1609  -76.3888 N.am      3 UNK        -0.4254 
     60 C         -80.5423   24.5762  -75.1590 C.2       2 UNK         0.5004 
     61 O         -79.4128   24.9567  -74.8476 O.2       2 UNK        -0.5226 
     62 CA        -81.6512   24.5627  -74.0933 C.3       2 UNK         0.0269 
     63 CB        -81.1453   23.9521  -72.7743 C.3       2 UNK        -0.1926 
     64 N         -82.1695   25.9088  -73.8306 N.am      2 UNK        -0.4687 
     65 C         -82.8765   26.6434  -74.7041 C.2       1 UNK         0.5165 
     66 O         -83.1721   26.2559  -75.8352 O.2       1 UNK        -0.5079 
     67 H67       -86.4230   28.2700  -70.9313 H         1 UNK         0.0900 
     68 H68       -85.1268   29.2772  -70.2806 H         1 UNK         0.0900 
     69 H69       -84.8677   27.5479  -70.5136 H         1 UNK         0.0900 
     70 H70       -83.6710   27.0768  -72.3458 H         1 UNK         0.2959 
     71 H71       -84.2265   28.2431  -74.8884 H         1 UNK         0.1079 
     72 H72       -82.8815   30.1108  -74.3363 H         1 UNK         0.0837 
     73 H73       -81.8986   29.1273  -75.3672 H         1 UNK         0.0837 
     74 H74       -79.8525   27.6254  -74.4211 H         1 UNK         0.0685 
     75 H75       -79.4228   29.2681  -74.8547 H         1 UNK         0.0685 
     76 H76       -79.1148   26.7382  -72.1279 H         1 UNK         0.1434 
     77 H77       -75.3015   28.1879  -70.8000 H         1 UNK         0.1329 
     78 H78       -77.4296   30.2505  -73.9028 H         1 UNK         0.1335 
     79 H79       -75.0597   30.8374  -71.4205 H         1 UNK         0.0680 
     80 H80       -75.3963   31.1794  -73.1030 H         1 UNK         0.0680 
     81 H81       -71.6428   30.9076  -71.9961 H         1 UNK         0.1032 
     82 H82       -73.0335   31.9274  -72.1698 H         1 UNK         0.1032 
     83 H83       -72.7374   31.7727  -74.7231 H         1 UNK         0.0461 
     84 H84       -71.5231   34.9640  -73.2150 H         1 UNK         0.3453 
     85 H85       -72.7454   33.8229  -72.7278 H         1 UNK         0.3453 
     86 H86       -71.3706   30.2365  -75.5117 H         1 UNK         0.2984 
     87 H87       -69.1774   29.6301  -76.1997 H         1 UNK         0.0554 
     88 H88       -67.0255   28.5913  -75.5775 H         1 UNK         0.0847 
     89 H89       -67.3354   28.8833  -73.8660 H         1 UNK         0.0847 
     90 H90       -67.0945   30.2342  -74.9641 H         1 UNK         0.0847 
     91 H91       -69.0860   27.3011  -74.4713 H         1 UNK         0.3141 
     92 H92       -70.3656   25.4453  -75.4233 H         1 UNK         0.0743 
     93 H93       -72.3392   26.6803  -73.4188 H         1 UNK         0.0784 
     94 H94       -71.8908   24.9763  -73.4585 H         1 UNK         0.0784 
     95 H95       -70.6861   26.1938  -73.0782 H         1 UNK         0.0784 
     96 H96       -73.2562   25.6891  -75.5222 H         1 UNK         0.3213 
     97 H97       -73.6508   25.6340  -78.9599 H         1 UNK         0.0855 
     98 H98       -73.7404   22.9619  -77.4526 H         1 UNK         0.0814 
     99 H99       -72.9148   23.2554  -78.9764 H         1 UNK         0.0814 
    100 H100      -74.6674   23.3492  -78.9023 H         1 UNK         0.0814 
    101 H101      -75.3948   24.7213  -76.8683 H         1 UNK         0.3105 
    102 H102      -76.1812   27.7406  -75.3782 H         1 UNK         0.0547 
    103 H103      -77.5673   28.2564  -77.3035 H         1 UNK         0.0837 
    104 H104      -77.8194   26.5626  -77.6808 H         1 UNK         0.0837 
    105 H105      -78.5669   27.2652  -76.2540 H         1 UNK         0.0837 
    106 H106      -77.6494   25.3787  -75.2313 H         1 UNK         0.3020 
    107 H107      -75.4094   23.3355  -73.3386 H         1 UNK         0.1245 
    108 H108      -77.5247   23.2080  -71.9441 H         1 UNK         0.0781 
    109 H109      -77.9593   24.7891  -72.5065 H         1 UNK         0.0781 
    110 H110      -76.6796   26.5648  -69.4219 H         1 UNK         0.0836 
    111 H111      -78.0998   25.8199  -70.1054 H         1 UNK         0.0836 
    112 H112      -78.0819   23.2726  -74.5837 H         1 UNK         0.3022 
    113 H113      -77.0192   21.2632  -77.2735 H         1 UNK         0.0747 
    114 H114      -78.6557   19.5886  -76.4380 H         1 UNK         0.0793 
    115 H115      -77.1670   19.4976  -75.5127 H         1 UNK         0.0793 
    116 H116      -78.5780   20.2827  -74.8176 H         1 UNK         0.0793 
    117 H117      -79.6130   22.0076  -76.2794 H         1 UNK         0.3047 
    118 H118      -79.7370   25.2349  -77.7386 H         1 UNK         0.0822 
    119 H119      -81.6609   24.3200  -78.9840 H         1 UNK         0.0807 
    120 H120      -81.1233   22.6684  -78.6741 H         1 UNK         0.0807 
    121 H121      -80.1668   23.7345  -79.6940 H         1 UNK         0.0807 
    122 H122      -81.8386   23.8991  -76.5570 H         1 UNK         0.2946 
    123 H123      -82.4745   23.9422  -74.4547 H         1 UNK         0.1144 
    124 H124      -80.7196   22.9612  -72.9384 H         1 UNK         0.0793 
    125 H125      -81.9561   23.8390  -72.0545 H         1 UNK         0.0793 
    126 H126      -80.3726   24.5658  -72.3113 H         1 UNK         0.0793 
    127 H127      -81.9069   26.3277  -72.9508 H         1 UNK         0.2896 
@<TRIPOS>BOND
     1    1    2 1    
     2    1   67 1    
     3    1   68 1    
     4    1   69 1    
     5    2    3 2    
     6    2    4 am   BACKBONE|DICT|INTERRES
     7    4    5 1    
     8    4   70 1    
     9    5    6 1    
    10    5   65 1    
    11    5   71 1    
    12    6    7 1    
    13    6   72 1    
    14    6   73 1    
    15    7    8 1    
    16    8    9 1    
    17    8   74 1    
    18    8   75 1    
    19    9   10 ar   
    20    9   14 ar   
    21   10   11 ar   
    22   10   76 1    
    23   11   12 ar   
    24   11   48 1    
    25   12   13 ar   
    26   12   77 1    
    27   13   14 ar   
    28   13   15 1    
    29   14   78 1    
    30   15   16 1    
    31   15   79 1    
    32   15   80 1    
    33   16   17 1    
    34   17   18 1    
    35   17   81 1    
    36   17   82 1    
    37   18   19 1    
    38   18   22 1    
    39   18   83 1    
    40   19   20 am   BACKBONE|DICT|INTERRES
    41   19   21 2    
    42   20   84 1    
    43   20   85 1    
    44   22   23 am   BACKBONE|DICT|INTERRES
    45   22   86 1    
    46   23   24 2    
    47   23   25 1    
    48   25   26 1    
    49   25   27 1    
    50   25   87 1    
    51   26   88 1    
    52   26   89 1    
    53   26   90 1    
    54   27   28 am   BACKBONE|DICT|INTERRES
    55   27   91 1    
    56   28   29 2    
    57   28   30 1    
    58   30   31 1    
    59   30   32 1    
    60   30   92 1    
    61   31   93 1    
    62   31   94 1    
    63   31   95 1    
    64   32   33 am   BACKBONE|DICT|INTERRES
    65   32   96 1    
    66   33   34 2    
    67   33   35 1    
    68   35   36 1    
    69   35   37 1    
    70   35   97 1    
    71   36   98 1    
    72   36   99 1    
    73   36  100 1    
    74   37   38 am   BACKBONE|DICT|INTERRES
    75   37  101 1    
    76   38   39 2    
    77   38   40 1    
    78   40   41 1    
    79   40   42 1    
    80   40  102 1    
    81   41  103 1    
    82   41  104 1    
    83   41  105 1    
    84   42   43 am   BACKBONE|DICT|INTERRES
    85   42  106 1    
    86   43   44 2    
    87   43   45 1    
    88   45   46 1    
    89   45   49 1    
    90   45  107 1    
    91   46   47 1    
    92   46  108 1    
    93   46  109 1    
    94   47   48 1    
    95   48  110 1    
    96   48  111 1    
    97   49   50 am   BACKBONE|DICT|INTERRES
    98   49  112 1    
    99   50   51 2    
   100   50   52 1    
   101   52   53 1    
   102   52   54 1    
   103   52  113 1    
   104   53  114 1    
   105   53  115 1    
   106   53  116 1    
   107   54   55 am   BACKBONE|DICT|INTERRES
   108   54  117 1    
   109   55   56 2    
   110   55   57 1    
   111   57   58 1    
   112   57   59 1    
   113   57  118 1    
   114   58  119 1    
   115   58  120 1    
   116   58  121 1    
   117   59   60 am   BACKBONE|DICT|INTERRES
   118   59  122 1    
   119   60   61 2    
   120   60   62 1    
   121   62   63 1    
   122   62   64 1    
   123   62  123 1    
   124   63  124 1    
   125   63  125 1    
   126   63  126 1    
   127   64   65 am   BACKBONE|DICT|INTERRES
   128   64  127 1    
   129   65   66 2    
@<TRIPOS>SUBSTRUCTURE
     1 UNK         1 GROUP             0       ****    0 ROOT    
