@<TRIPOS>MOLECULE
3R135
127   129    1
SMALL
USER_CHARGES


@<TRIPOS>ATOM
      1 CA        -84.4773   26.5970  -69.4312 C.3       0 UNK        -0.1998 
      2 C         -84.1111   26.0067  -70.7845 C.2       0 UNK         0.4909 
      3 O         -84.8350   25.1524  -71.2967 O.2       0 UNK        -0.5240 
      4 N         -82.9935   26.4580  -71.3685 N.am      1 UNK        -0.4739 
      5 CA        -82.4622   25.9802  -72.6520 C.3       1 UNK         0.0864 
      6 C6        -81.4158   26.9600  -73.2441 C.3       11 UNK        -0.0881 
      7 S7        -80.0437   27.3561  -72.0956 S.3       11 UNK        -0.2682 
      8 C8        -80.1794   29.1653  -71.9568 C.3       11 UNK         0.0289 
      9 C9        -79.2831   29.8747  -72.9619 C.ar      11 UNK        -0.0687 
     10 C10       -79.6713   30.0084  -74.3003 C.ar      11 UNK        -0.0823 
     11 C11       -78.8538   30.6848  -75.2130 C.ar      11 UNK        -0.0830 
     12 C12       -77.6542   31.2490  -74.7675 C.ar      11 UNK        -0.1021 
     13 C13       -77.2431   31.0972  -73.4427 C.ar      11 UNK        -0.0753 
     14 C14       -78.0620   30.4116  -72.5427 C.ar      11 UNK        -0.0933 
     15 C15       -75.9037   31.6628  -72.9990 C.3       11 UNK         0.0166 
     16 S16       -74.5257   30.7038  -73.7001 S.3       11 UNK        -0.2615 
     17 C17       -74.7393   29.0960  -72.8585 C.3       11 UNK        -0.0865 
     18 CA        -73.3798   28.4510  -72.4900 C.3       10 UNK         0.0862 
     19 C         -73.5643   27.1966  -71.5843 C.2       10 UNK         0.5551 
     20 N         -73.0070   26.0356  -71.9097 N.am      10 UNK        -0.7319 
     21 O         -74.2206   27.2831  -70.5497 O.2       10 UNK        -0.5018 
     22 N         -72.5602   28.2146  -73.6879 N.am      10 UNK        -0.4509 
     23 C         -71.2213   28.2045  -73.7055 C.2       10 UNK         0.4899 
     24 O         -70.5216   28.4760  -72.7281 O.2       10 UNK        -0.4839 
     25 CA        -70.5595   27.8019  -75.0396 C.3       9 UNK         0.0222 
     26 CB        -69.0734   27.4168  -74.8824 C.3       9 UNK        -0.1966 
     27 N         -71.2955   26.7447  -75.7451 N.am      9 UNK        -0.4218 
     28 C         -71.6196   25.5295  -75.2719 C.2       9 UNK         0.5020 
     29 O         -71.2740   25.1205  -74.1626 O.2       9 UNK        -0.5274 
     30 CA        -72.5214   24.6312  -76.1386 C.3       8 UNK         0.0270 
     31 CB        -73.7704   24.2049  -75.3494 C.3       8 UNK        -0.1976 
     32 N         -72.9459   25.2868  -77.3778 N.am      8 UNK        -0.4313 
     33 C         -72.2929   25.2146  -78.5457 C.2       8 UNK         0.5041 
     34 O         -71.3190   24.4873  -78.7424 O.2       8 UNK        -0.5577 
     35 CA        -72.7730   26.1473  -79.6731 C.3       7 UNK         0.0284 
     36 CB        -73.7163   25.4076  -80.6352 C.3       7 UNK        -0.1958 
     37 N         -73.4196   27.3662  -79.1708 N.am      7 UNK        -0.4454 
     38 C         -72.7695   28.3472  -78.5254 C.2       7 UNK         0.5089 
     39 O         -71.5568   28.3310  -78.3183 O.2       7 UNK        -0.5125 
     40 CA        -73.5994   29.5173  -77.9686 C.3       6 UNK         0.0408 
     41 CB        -73.5786   30.7037  -78.9435 C.3       6 UNK        -0.1791 
     42 N         -74.9872   29.1678  -77.6642 N.am      6 UNK        -0.4762 
     43 C         -75.3819   28.2897  -76.7342 C.2       6 UNK         0.5007 
     44 O         -74.5898   27.6693  -76.0165 O.2       6 UNK        -0.5032 
     45 CA        -76.9061   28.0406  -76.5962 C.3       5 UNK         0.0783 
     46 C46       -77.7962   28.6164  -77.7410 C.3       11 UNK        -0.0857 
     47 S47       -77.9071   30.4369  -77.8328 S.3       11 UNK        -0.2512 
     48 C48       -79.2685   30.8152  -76.6747 C.3       11 UNK         0.0225 
     49 N         -77.1987   26.6176  -76.3976 N.am      5 UNK        -0.4615 
     50 C         -76.8663   25.6088  -77.2147 C.2       4 UNK         0.5053 
     51 O         -76.1827   25.7565  -78.2286 O.2       4 UNK        -0.5105 
     52 CA        -77.3889   24.2041  -76.8389 C.3       4 UNK         0.0263 
     53 CB        -76.7943   23.0942  -77.7277 C.3       4 UNK        -0.1981 
     54 N         -77.1757   23.8681  -75.4247 N.am      4 UNK        -0.4224 
     55 C         -77.9087   24.3442  -74.4110 C.2       3 UNK         0.4895 
     56 O         -78.8442   25.1304  -74.5677 O.2       3 UNK        -0.5091 
     57 CA        -77.4887   23.9449  -72.9919 C.3       3 UNK         0.0250 
     58 CB        -76.5459   25.0091  -72.4051 C.3       3 UNK        -0.1996 
     59 N         -78.6813   23.8544  -72.1526 N.am      3 UNK        -0.4254 
     60 C         -79.3665   22.7280  -71.9150 C.2       2 UNK         0.5004 
     61 O         -78.9912   21.6074  -72.2645 O.2       2 UNK        -0.5226 
     62 CA        -80.7070   22.8736  -71.1706 C.3       2 UNK         0.0269 
     63 CB        -80.5107   22.6758  -69.6588 C.3       2 UNK        -0.1926 
     64 N         -81.3588   24.1654  -71.4074 N.am      2 UNK        -0.4687 
     65 C         -81.9068   24.5413  -72.5735 C.2       1 UNK         0.5165 
     66 O         -81.9912   23.8032  -73.5563 O.2       1 UNK        -0.5079 
     67 H67       -85.4568   27.0716  -69.4817 H         1 UNK         0.0900 
     68 H68       -83.7551   27.3445  -69.1031 H         1 UNK         0.0900 
     69 H69       -84.5176   25.8108  -68.6777 H         1 UNK         0.0900 
     70 H70       -82.4330   27.1592  -70.9048 H         1 UNK         0.2959 
     71 H71       -83.2993   25.9395  -73.3530 H         1 UNK         0.1079 
     72 H72       -80.9953   26.5647  -74.1703 H         1 UNK         0.0837 
     73 H73       -81.9251   27.8782  -73.5371 H         1 UNK         0.0837 
     74 H74       -81.2141   29.4886  -72.0776 H         1 UNK         0.0685 
     75 H75       -79.8987   29.4499  -70.9416 H         1 UNK         0.0685 
     76 H76       -80.6096   29.5846  -74.6295 H         1 UNK         0.1434 
     77 H77       -77.0173   31.7817  -75.4606 H         1 UNK         0.1329 
     78 H78       -77.7499   30.2969  -71.5136 H         1 UNK         0.1335 
     79 H79       -75.8227   31.6811  -71.9110 H         1 UNK         0.0680 
     80 H80       -75.8203   32.6984  -73.3315 H         1 UNK         0.0680 
     81 H81       -75.3232   28.4333  -73.4993 H         1 UNK         0.1032 
     82 H82       -75.3381   29.2493  -71.9590 H         1 UNK         0.1032 
     83 H83       -72.8515   29.1728  -71.8641 H         1 UNK         0.0461 
     84 H84       -72.4230   25.9390  -72.7326 H         1 UNK         0.3453 
     85 H85       -73.1343   25.2473  -71.2965 H         1 UNK         0.3453 
     86 H86       -73.0721   27.9803  -74.5311 H         1 UNK         0.2984 
     87 H87       -70.6063   28.6848  -75.6784 H         1 UNK         0.0554 
     88 H88       -68.6276   27.1574  -75.8426 H         1 UNK         0.0847 
     89 H89       -68.9443   26.5668  -74.2116 H         1 UNK         0.0847 
     90 H90       -68.4950   28.2455  -74.4721 H         1 UNK         0.0847 
     91 H91       -71.6079   26.9941  -76.6759 H         1 UNK         0.3141 
     92 H92       -71.9462   23.7330  -76.3719 H         1 UNK         0.0743 
     93 H93       -74.4239   25.0529  -75.1422 H         1 UNK         0.0784 
     94 H94       -74.3376   23.4586  -75.9005 H         1 UNK         0.0784 
     95 H95       -73.5053   23.7540  -74.3920 H         1 UNK         0.0784 
     96 H96       -73.7374   25.9161  -77.3061 H         1 UNK         0.3213 
     97 H97       -71.8896   26.4505  -80.2397 H         1 UNK         0.0855 
     98 H98       -74.6082   25.0377  -80.1303 H         1 UNK         0.0814 
     99 H99       -73.2169   24.5447  -81.0779 H         1 UNK         0.0814 
    100 H100      -74.0352   26.0514  -81.4548 H         1 UNK         0.0814 
    101 H101      -74.4252   27.4242  -79.2602 H         1 UNK         0.3105 
    102 H102      -73.1293   29.8350  -77.0353 H         1 UNK         0.0547 
    103 H103      -74.0598   30.4576  -79.8907 H         1 UNK         0.0837 
    104 H104      -74.0867   31.5718  -78.5233 H         1 UNK         0.0837 
    105 H105      -72.5547   31.0071  -79.1670 H         1 UNK         0.0837 
    106 H106      -75.7067   29.6534  -78.1849 H         1 UNK         0.3020 
    107 H107      -77.1913   28.5271  -75.6634 H         1 UNK         0.1245 
    108 H108      -77.4565   28.2451  -78.7097 H         1 UNK         0.0781 
    109 H109      -78.8141   28.2375  -77.6347 H         1 UNK         0.0781 
    110 H110      -79.5976   31.8405  -76.8481 H         1 UNK         0.0836 
    111 H111      -80.1233   30.1760  -76.9010 H         1 UNK         0.0836 
    112 H112      -77.7693   26.3842  -75.5903 H         1 UNK         0.3022 
    113 H113      -78.4653   24.2182  -77.0239 H         1 UNK         0.0747 
    114 H114      -77.1771   22.1119  -77.4503 H         1 UNK         0.0793 
    115 H115      -77.0564   23.2556  -78.7742 H         1 UNK         0.0793 
    116 H116      -75.7066   23.0615  -77.6738 H         1 UNK         0.0793 
    117 H117      -76.4057   23.2486  -75.2200 H         1 UNK         0.3047 
    118 H118      -76.9686   22.9848  -73.0199 H         1 UNK         0.0822 
    119 H119      -76.2432   24.7554  -71.3890 H         1 UNK         0.0807 
    120 H120      -77.0130   25.9951  -72.3769 H         1 UNK         0.0807 
    121 H121      -75.6359   25.0985  -72.9988 H         1 UNK         0.0807 
    122 H122      -79.1102   24.7345  -71.8992 H         1 UNK         0.2946 
    123 H123      -81.3693   22.0860  -71.5378 H         1 UNK         0.1144 
    124 H124      -81.4629   22.7001  -69.1284 H         1 UNK         0.0793 
    125 H125      -79.8664   23.4446  -69.2304 H         1 UNK         0.0793 
    126 H126      -80.0492   21.7097  -69.4490 H         1 UNK         0.0793 
    127 H127      -81.3461   24.8350  -70.6515 H         1 UNK         0.2896 
@<TRIPOS>BOND
     1    1    2 1    
     2    1   67 1    
     3    1   68 1    
     4    1   69 1    
     5    2    3 2    
     6    2    4 am   BACKBONE|DICT|INTERRES
     7    4    5 1    
     8    4   70 1    
     9    5    6 1    
    10    5   65 1    
    11    5   71 1    
    12    6    7 1    
    13    6   72 1    
    14    6   73 1    
    15    7    8 1    
    16    8    9 1    
    17    8   74 1    
    18    8   75 1    
    19    9   10 ar   
    20    9   14 ar   
    21   10   11 ar   
    22   10   76 1    
    23   11   12 ar   
    24   11   48 1    
    25   12   13 ar   
    26   12   77 1    
    27   13   14 ar   
    28   13   15 1    
    29   14   78 1    
    30   15   16 1    
    31   15   79 1    
    32   15   80 1    
    33   16   17 1    
    34   17   18 1    
    35   17   81 1    
    36   17   82 1    
    37   18   19 1    
    38   18   22 1    
    39   18   83 1    
    40   19   20 am   BACKBONE|DICT|INTERRES
    41   19   21 2    
    42   20   84 1    
    43   20   85 1    
    44   22   23 am   BACKBONE|DICT|INTERRES
    45   22   86 1    
    46   23   24 2    
    47   23   25 1    
    48   25   26 1    
    49   25   27 1    
    50   25   87 1    
    51   26   88 1    
    52   26   89 1    
    53   26   90 1    
    54   27   28 am   BACKBONE|DICT|INTERRES
    55   27   91 1    
    56   28   29 2    
    57   28   30 1    
    58   30   31 1    
    59   30   32 1    
    60   30   92 1    
    61   31   93 1    
    62   31   94 1    
    63   31   95 1    
    64   32   33 am   BACKBONE|DICT|INTERRES
    65   32   96 1    
    66   33   34 2    
    67   33   35 1    
    68   35   36 1    
    69   35   37 1    
    70   35   97 1    
    71   36   98 1    
    72   36   99 1    
    73   36  100 1    
    74   37   38 am   BACKBONE|DICT|INTERRES
    75   37  101 1    
    76   38   39 2    
    77   38   40 1    
    78   40   41 1    
    79   40   42 1    
    80   40  102 1    
    81   41  103 1    
    82   41  104 1    
    83   41  105 1    
    84   42   43 am   BACKBONE|DICT|INTERRES
    85   42  106 1    
    86   43   44 2    
    87   43   45 1    
    88   45   46 1    
    89   45   49 1    
    90   45  107 1    
    91   46   47 1    
    92   46  108 1    
    93   46  109 1    
    94   47   48 1    
    95   48  110 1    
    96   48  111 1    
    97   49   50 am   BACKBONE|DICT|INTERRES
    98   49  112 1    
    99   50   51 2    
   100   50   52 1    
   101   52   53 1    
   102   52   54 1    
   103   52  113 1    
   104   53  114 1    
   105   53  115 1    
   106   53  116 1    
   107   54   55 am   BACKBONE|DICT|INTERRES
   108   54  117 1    
   109   55   56 2    
   110   55   57 1    
   111   57   58 1    
   112   57   59 1    
   113   57  118 1    
   114   58  119 1    
   115   58  120 1    
   116   58  121 1    
   117   59   60 am   BACKBONE|DICT|INTERRES
   118   59  122 1    
   119   60   61 2    
   120   60   62 1    
   121   62   63 1    
   122   62   64 1    
   123   62  123 1    
   124   63  124 1    
   125   63  125 1    
   126   63  126 1    
   127   64   65 am   BACKBONE|DICT|INTERRES
   128   64  127 1    
   129   65   66 2    
@<TRIPOS>SUBSTRUCTURE
     1 UNK         1 GROUP             0       ****    0 ROOT    
