@<TRIPOS>MOLECULE
3R135
127   129    1
SMALL
USER_CHARGES


@<TRIPOS>ATOM
      1 CA        -77.6954   25.5656  -71.9500 C.3       0 UNK        -0.1998 
      2 C         -79.2058   25.6824  -71.8299 C.2       0 UNK         0.4909 
      3 O         -79.8943   24.6662  -71.7200 O.2       0 UNK        -0.5240 
      4 N         -79.7308   26.9141  -71.8584 N.am      1 UNK        -0.4739 
      5 CA        -81.1629   27.2341  -71.7999 C.3       1 UNK         0.0864 
      6 C6        -81.4265   28.7244  -71.4531 C.3       11 UNK        -0.0881 
      7 S7        -80.7012   29.2370  -69.8560 S.3       11 UNK        -0.2682 
      8 C8        -79.5005   30.5115  -70.3662 C.3       11 UNK         0.0289 
      9 C9        -78.3022   29.8985  -71.0737 C.ar      11 UNK        -0.0687 
     10 C10       -78.2681   29.8268  -72.4685 C.ar      11 UNK        -0.0823 
     11 C11       -77.2082   29.1912  -73.1172 C.ar      11 UNK        -0.0830 
     12 C12       -76.1567   28.6621  -72.3647 C.ar      11 UNK        -0.1021 
     13 C13       -76.1500   28.7746  -70.9691 C.ar      11 UNK        -0.0753 
     14 C14       -77.2352   29.3837  -70.3313 C.ar      11 UNK        -0.0933 
     15 C15       -75.0093   28.2042  -70.1292 C.3       11 UNK         0.0166 
     16 S16       -73.3560   28.4100  -70.8728 S.3       11 UNK        -0.2615 
     17 C17       -73.1096   30.2184  -70.8015 C.3       11 UNK        -0.0865 
     18 CA        -73.4843   30.9706  -72.1093 C.3       10 UNK         0.0862 
     19 C         -73.1833   32.4914  -71.9623 C.2       10 UNK         0.5551 
     20 N         -72.2565   33.0637  -72.7214 N.am      10 UNK        -0.7319 
     21 O         -73.8028   33.1630  -71.1411 O.2       10 UNK        -0.5018 
     22 N         -72.9148   30.3301  -73.3093 N.am      10 UNK        -0.4509 
     23 C         -73.3048   30.5600  -74.5687 C.2       10 UNK         0.4899 
     24 O         -74.1942   31.3533  -74.8765 O.2       10 UNK        -0.4839 
     25 CA        -72.6024   29.7629  -75.6825 C.3       9 UNK         0.0222 
     26 CB        -71.1836   30.2984  -75.9586 C.3       9 UNK        -0.1966 
     27 N         -72.6165   28.3094  -75.4735 N.am      9 UNK        -0.4218 
     28 C         -71.9796   27.5810  -74.5444 C.2       9 UNK         0.5020 
     29 O         -71.2011   28.0522  -73.7145 O.2       9 UNK        -0.5274 
     30 CA        -72.2722   26.0732  -74.5262 C.3       8 UNK         0.0270 
     31 CB        -73.5858   25.7895  -73.7761 C.3       8 UNK        -0.1976 
     32 N         -72.3654   25.5123  -75.8765 N.am      8 UNK        -0.4313 
     33 C         -71.3929   24.8250  -76.4902 C.2       8 UNK         0.5041 
     34 O         -70.2763   24.6415  -76.0032 O.2       8 UNK        -0.5577 
     35 CA        -71.7147   24.1965  -77.8606 C.3       7 UNK         0.0284 
     36 CB        -71.8918   22.6750  -77.7181 C.3       7 UNK        -0.1958 
     37 N         -72.9170   24.7508  -78.4884 N.am      7 UNK        -0.4454 
     38 C         -72.9377   25.8573  -79.2423 C.2       7 UNK         0.5089 
     39 O         -71.9356   26.5136  -79.5265 O.2       7 UNK        -0.5125 
     40 CA        -74.3167   26.3262  -79.7458 C.3       6 UNK         0.0408 
     41 CB        -74.6334   25.6902  -81.1083 C.3       6 UNK        -0.1791 
     42 N         -75.4325   26.0723  -78.8237 N.am      6 UNK        -0.4762 
     43 C         -75.5097   26.4905  -77.5539 C.2       6 UNK         0.5007 
     44 O         -74.5855   27.0619  -76.9764 O.2       6 UNK        -0.5032 
     45 CA        -76.8029   26.2226  -76.7621 C.3       5 UNK         0.0783 
     46 C46       -77.7675   27.4403  -76.8231 C.3       11 UNK        -0.0857 
     47 S47       -78.4225   27.8149  -75.1696 S.3       11 UNK        -0.2512 
     48 C48       -77.2101   29.0617  -74.6295 C.3       11 UNK         0.0225 
     49 N         -77.4517   24.9370  -77.0457 N.am      5 UNK        -0.4615 
     50 C         -78.0668   24.5211  -78.1571 C.2       4 UNK         0.5053 
     51 O         -78.1228   25.1832  -79.1932 O.2       4 UNK        -0.5105 
     52 CA        -78.7188   23.1265  -78.1231 C.3       4 UNK         0.0263 
     53 CB        -77.6993   22.0411  -78.5205 C.3       4 UNK        -0.1981 
     54 N         -79.4055   22.7842  -76.8657 N.am      4 UNK        -0.4224 
     55 C         -78.8985   22.5874  -75.6401 C.2       3 UNK         0.4895 
     56 O         -77.7060   22.7248  -75.3596 O.2       3 UNK        -0.5091 
     57 CA        -79.9103   22.2111  -74.5419 C.3       3 UNK         0.0250 
     58 CB        -79.2237   21.7175  -73.2548 C.3       3 UNK        -0.1996 
     59 N         -80.7964   23.3316  -74.2125 N.am      3 UNK        -0.4254 
     60 C         -81.8470   23.7233  -74.9519 C.2       2 UNK         0.5004 
     61 O         -82.1524   23.1829  -76.0169 O.2       2 UNK        -0.5226 
     62 CA        -82.7105   24.8921  -74.4435 C.3       2 UNK         0.0269 
     63 CB        -84.1389   24.4155  -74.1271 C.3       2 UNK        -0.1926 
     64 N         -82.1476   25.5229  -73.2483 N.am      2 UNK        -0.4687 
     65 C         -81.8594   26.8224  -73.1168 C.2       1 UNK         0.5165 
     66 O         -82.0956   27.6661  -73.9837 O.2       1 UNK        -0.5079 
     67 H67       -77.3882   24.5209  -71.9822 H         1 UNK         0.0900 
     68 H68       -77.3436   26.0470  -72.8615 H         1 UNK         0.0900 
     69 H69       -77.2101   26.0346  -71.0953 H         1 UNK         0.0900 
     70 H70       -79.1142   27.7106  -71.9554 H         1 UNK         0.2959 
     71 H71       -81.6046   26.6362  -70.9993 H         1 UNK         0.1079 
     72 H72       -82.5015   28.9042  -71.3897 H         1 UNK         0.0837 
     73 H73       -81.0695   29.3784  -72.2488 H         1 UNK         0.0837 
     74 H74       -79.1645   31.0527  -69.4804 H         1 UNK         0.0685 
     75 H75       -79.9925   31.2482  -71.0033 H         1 UNK         0.0685 
     76 H76       -79.0813   30.2337  -73.0538 H         1 UNK         0.1434 
     77 H77       -75.3365   28.1695  -72.8672 H         1 UNK         0.1329 
     78 H78       -77.2601   29.4450  -69.2518 H         1 UNK         0.1335 
     79 H79       -75.1898   27.1386  -69.9841 H         1 UNK         0.0680 
     80 H80       -75.0014   28.6533  -69.1348 H         1 UNK         0.0680 
     81 H81       -72.0586   30.3909  -70.5624 H         1 UNK         0.1032 
     82 H82       -73.6759   30.6187  -69.9583 H         1 UNK         0.1032 
     83 H83       -74.5678   30.9086  -72.2156 H         1 UNK         0.0461 
     84 H84       -71.7458   32.5180  -73.3962 H         1 UNK         0.3453 
     85 H85       -72.0703   34.0489  -72.6194 H         1 UNK         0.3453 
     86 H86       -72.1990   29.6256  -73.1551 H         1 UNK         0.2984 
     87 H87       -73.1854   29.9207  -76.5916 H         1 UNK         0.0554 
     88 H88       -71.2135   31.3567  -76.2208 H         1 UNK         0.0847 
     89 H89       -70.7185   29.7719  -76.7920 H         1 UNK         0.0847 
     90 H90       -70.5281   30.1993  -75.0933 H         1 UNK         0.0847 
     91 H91       -73.2788   27.8174  -76.0728 H         1 UNK         0.3141 
     92 H92       -71.4644   25.5855  -73.9761 H         1 UNK         0.0743 
     93 H93       -73.5251   26.1316  -72.7430 H         1 UNK         0.0784 
     94 H94       -74.4371   26.2909  -74.2365 H         1 UNK         0.0784 
     95 H95       -73.8024   24.7215  -73.7466 H         1 UNK         0.0784 
     96 H96       -73.2205   25.6970  -76.3864 H         1 UNK         0.3213 
     97 H97       -70.8553   24.3769  -78.5105 H         1 UNK         0.0855 
     98 H98       -72.7331   22.4237  -77.0708 H         1 UNK         0.0814 
     99 H99       -71.0010   22.2168  -77.2859 H         1 UNK         0.0814 
    100 H100      -72.0584   22.2021  -78.6862 H         1 UNK         0.0814 
    101 H101      -73.7898   24.2710  -78.3209 H         1 UNK         0.3105 
    102 H102      -74.2570   27.4078  -79.8829 H         1 UNK         0.0547 
    103 H103      -75.5514   26.0970  -81.5329 H         1 UNK         0.0837 
    104 H104      -73.8341   25.8826  -81.8256 H         1 UNK         0.0837 
    105 H105      -74.7500   24.6085  -81.0318 H         1 UNK         0.0837 
    106 H106      -76.2688   25.6454  -79.2139 H         1 UNK         0.3020 
    107 H107      -76.4511   26.1124  -75.7348 H         1 UNK         0.1245 
    108 H108      -78.6067   27.2569  -77.4950 H         1 UNK         0.0781 
    109 H109      -77.2854   28.3411  -77.2099 H         1 UNK         0.0781 
    110 H110      -76.2140   28.7892  -74.9835 H         1 UNK         0.0836 
    111 H111      -77.4458   30.0243  -75.0860 H         1 UNK         0.0836 
    112 H112      -77.4284   24.2625  -76.2826 H         1 UNK         0.3022 
    113 H113      -79.4995   23.1354  -78.8855 H         1 UNK         0.0747 
    114 H114      -78.1697   21.0597  -78.5812 H         1 UNK         0.0793 
    115 H115      -77.2665   22.2533  -79.4991 H         1 UNK         0.0793 
    116 H116      -76.8744   21.9737  -77.8105 H         1 UNK         0.0793 
    117 H117      -80.4192   22.7404  -76.9302 H         1 UNK         0.3047 
    118 H118      -80.5152   21.3861  -74.9250 H         1 UNK         0.0822 
    119 H119      -78.5863   20.8561  -73.4585 H         1 UNK         0.0807 
    120 H120      -79.9552   21.4102  -72.5073 H         1 UNK         0.0807 
    121 H121      -78.5952   22.4886  -72.8088 H         1 UNK         0.0807 
    122 H122      -80.5619   23.8449  -73.3684 H         1 UNK         0.2946 
    123 H123      -82.7606   25.6119  -75.2638 H         1 UNK         0.1144 
    124 H124      -84.7752   25.2475  -73.8250 H         1 UNK         0.0793 
    125 H125      -84.1491   23.6767  -73.3248 H         1 UNK         0.0793 
    126 H126      -84.6031   23.9561  -75.0010 H         1 UNK         0.0793 
    127 H127      -81.8542   24.9042  -72.5010 H         1 UNK         0.2896 
@<TRIPOS>BOND
     1    1    2 1    
     2    1   67 1    
     3    1   68 1    
     4    1   69 1    
     5    2    3 2    
     6    2    4 am   BACKBONE|DICT|INTERRES
     7    4    5 1    
     8    4   70 1    
     9    5    6 1    
    10    5   65 1    
    11    5   71 1    
    12    6    7 1    
    13    6   72 1    
    14    6   73 1    
    15    7    8 1    
    16    8    9 1    
    17    8   74 1    
    18    8   75 1    
    19    9   10 ar   
    20    9   14 ar   
    21   10   11 ar   
    22   10   76 1    
    23   11   12 ar   
    24   11   48 1    
    25   12   13 ar   
    26   12   77 1    
    27   13   14 ar   
    28   13   15 1    
    29   14   78 1    
    30   15   16 1    
    31   15   79 1    
    32   15   80 1    
    33   16   17 1    
    34   17   18 1    
    35   17   81 1    
    36   17   82 1    
    37   18   19 1    
    38   18   22 1    
    39   18   83 1    
    40   19   20 am   BACKBONE|DICT|INTERRES
    41   19   21 2    
    42   20   84 1    
    43   20   85 1    
    44   22   23 am   BACKBONE|DICT|INTERRES
    45   22   86 1    
    46   23   24 2    
    47   23   25 1    
    48   25   26 1    
    49   25   27 1    
    50   25   87 1    
    51   26   88 1    
    52   26   89 1    
    53   26   90 1    
    54   27   28 am   BACKBONE|DICT|INTERRES
    55   27   91 1    
    56   28   29 2    
    57   28   30 1    
    58   30   31 1    
    59   30   32 1    
    60   30   92 1    
    61   31   93 1    
    62   31   94 1    
    63   31   95 1    
    64   32   33 am   BACKBONE|DICT|INTERRES
    65   32   96 1    
    66   33   34 2    
    67   33   35 1    
    68   35   36 1    
    69   35   37 1    
    70   35   97 1    
    71   36   98 1    
    72   36   99 1    
    73   36  100 1    
    74   37   38 am   BACKBONE|DICT|INTERRES
    75   37  101 1    
    76   38   39 2    
    77   38   40 1    
    78   40   41 1    
    79   40   42 1    
    80   40  102 1    
    81   41  103 1    
    82   41  104 1    
    83   41  105 1    
    84   42   43 am   BACKBONE|DICT|INTERRES
    85   42  106 1    
    86   43   44 2    
    87   43   45 1    
    88   45   46 1    
    89   45   49 1    
    90   45  107 1    
    91   46   47 1    
    92   46  108 1    
    93   46  109 1    
    94   47   48 1    
    95   48  110 1    
    96   48  111 1    
    97   49   50 am   BACKBONE|DICT|INTERRES
    98   49  112 1    
    99   50   51 2    
   100   50   52 1    
   101   52   53 1    
   102   52   54 1    
   103   52  113 1    
   104   53  114 1    
   105   53  115 1    
   106   53  116 1    
   107   54   55 am   BACKBONE|DICT|INTERRES
   108   54  117 1    
   109   55   56 2    
   110   55   57 1    
   111   57   58 1    
   112   57   59 1    
   113   57  118 1    
   114   58  119 1    
   115   58  120 1    
   116   58  121 1    
   117   59   60 am   BACKBONE|DICT|INTERRES
   118   59  122 1    
   119   60   61 2    
   120   60   62 1    
   121   62   63 1    
   122   62   64 1    
   123   62  123 1    
   124   63  124 1    
   125   63  125 1    
   126   63  126 1    
   127   64   65 am   BACKBONE|DICT|INTERRES
   128   64  127 1    
   129   65   66 2    
@<TRIPOS>SUBSTRUCTURE
     1 UNK         1 GROUP             0       ****    0 ROOT    
