@<TRIPOS>MOLECULE
3R135
127   129    1
SMALL
USER_CHARGES


@<TRIPOS>ATOM
      1 CA        -84.1274   25.0576  -74.9103 C.3       0 UNK        -0.1998 
      2 C         -82.9812   25.9215  -74.4082 C.2       0 UNK         0.4909 
      3 O         -81.8675   25.4179  -74.2637 O.2       0 UNK        -0.5240 
      4 N         -83.2492   27.2170  -74.1806 N.am      1 UNK        -0.4739 
      5 CA        -82.4022   28.2857  -73.6100 C.3       1 UNK         0.0864 
      6 C6        -82.1470   28.1098  -72.0816 C.3       11 UNK        -0.0881 
      7 S7        -80.6611   27.1521  -71.6015 S.3       11 UNK        -0.2682 
      8 C8        -79.5114   28.4851  -71.1265 C.3       11 UNK         0.0289 
      9 C9        -78.1000   28.2083  -71.6202 C.ar      11 UNK        -0.0687 
     10 C10       -77.3138   27.2390  -70.9903 C.ar      11 UNK        -0.0823 
     11 C11       -76.0137   26.9843  -71.4347 C.ar      11 UNK        -0.0830 
     12 C12       -75.4953   27.7207  -72.5032 C.ar      11 UNK        -0.1021 
     13 C13       -76.2752   28.6789  -73.1538 C.ar      11 UNK        -0.0753 
     14 C14       -77.5763   28.9236  -72.7030 C.ar      11 UNK        -0.0933 
     15 C15       -75.7128   29.4203  -74.3601 C.3       11 UNK         0.0166 
     16 S16       -75.4713   31.1968  -74.0561 S.3       11 UNK        -0.2615 
     17 C17       -74.3410   31.2162  -72.6242 C.3       11 UNK        -0.0865 
     18 CA        -72.9361   31.7660  -72.9781 C.3       10 UNK         0.0862 
     19 C         -72.2255   32.2752  -71.6912 C.2       10 UNK         0.5551 
     20 N         -72.3578   33.5562  -71.3759 N.am      10 UNK        -0.7319 
     21 O         -71.5977   31.5127  -70.9584 O.2       10 UNK        -0.5018 
     22 N         -72.1202   30.7713  -73.6958 N.am      10 UNK        -0.4509 
     23 C         -70.9216   31.0334  -74.2296 C.2       10 UNK         0.4899 
     24 O         -70.4885   32.1738  -74.4010 O.2       10 UNK        -0.4839 
     25 CA        -70.0176   29.8414  -74.5922 C.3       9 UNK         0.0222 
     26 CB        -69.4245   29.2027  -73.3201 C.3       9 UNK        -0.1966 
     27 N         -70.5995   28.8213  -75.4738 N.am      9 UNK        -0.4218 
     28 C         -71.6188   27.9833  -75.2446 C.2       9 UNK         0.5020 
     29 O         -72.3333   28.0056  -74.2397 O.2       9 UNK        -0.5274 
     30 CA        -71.8118   26.8768  -76.2945 C.3       8 UNK         0.0270 
     31 CB        -71.2401   25.5487  -75.7736 C.3       8 UNK        -0.1976 
     32 N         -73.2153   26.6918  -76.6623 N.am      8 UNK        -0.4313 
     33 C         -73.9136   27.5591  -77.4095 C.2       8 UNK         0.5041 
     34 O         -73.4357   28.6111  -77.8392 O.2       8 UNK        -0.5577 
     35 CA        -75.3809   27.2110  -77.7395 C.3       7 UNK         0.0284 
     36 CB        -75.8356   27.7836  -79.0989 C.3       7 UNK        -0.1958 
     37 N         -75.7025   25.7830  -77.6442 N.am      7 UNK        -0.4454 
     38 C         -75.2008   24.7672  -78.3625 C.2       7 UNK         0.5089 
     39 O         -74.3902   24.9092  -79.2793 O.2       7 UNK        -0.5125 
     40 CA        -75.6783   23.3501  -77.9669 C.3       6 UNK         0.0408 
     41 CB        -74.7094   22.2473  -78.4414 C.3       6 UNK        -0.1791 
     42 N         -75.9617   23.1951  -76.5308 N.am      6 UNK        -0.4762 
     43 C         -75.1214   23.4480  -75.5119 C.2       6 UNK         0.5007 
     44 O         -73.9660   23.8382  -75.6822 O.2       6 UNK        -0.5032 
     45 CA        -75.6592   23.2951  -74.0725 C.3       5 UNK         0.0783 
     46 C46       -75.0201   24.3477  -73.1310 C.3       11 UNK        -0.0857 
     47 S47       -75.5944   24.2413  -71.4008 S.3       11 UNK        -0.2512 
     48 C48       -75.1736   25.9007  -70.7747 C.3       11 UNK         0.0225 
     49 N         -77.1248   23.3605  -74.0701 N.am      5 UNK        -0.4615 
     50 C         -77.9340   22.4042  -73.5961 C.2       4 UNK         0.5053 
     51 O         -77.5338   21.3713  -73.0577 O.2       4 UNK        -0.5105 
     52 CA        -79.4520   22.6095  -73.7717 C.3       4 UNK         0.0263 
     53 CB        -80.0447   23.2573  -72.5102 C.3       4 UNK        -0.1981 
     54 N         -79.8287   23.4076  -74.9439 N.am      4 UNK        -0.4224 
     55 C         -79.4780   23.1426  -76.2123 C.2       3 UNK         0.4895 
     56 O         -78.8289   22.1531  -76.5520 O.2       3 UNK        -0.5091 
     57 CA        -79.8495   24.1802  -77.2851 C.3       3 UNK         0.0250 
     58 CB        -81.1888   23.8115  -77.9417 C.3       3 UNK        -0.1996 
     59 N         -79.9110   25.5645  -76.8067 N.am      3 UNK        -0.4254 
     60 C         -78.9336   26.2358  -76.1774 C.2       2 UNK         0.5004 
     61 O         -77.8453   25.7484  -75.8679 O.2       2 UNK        -0.5226 
     62 CA        -79.2628   27.6782  -75.7891 C.3       2 UNK         0.0269 
     63 CB        -79.2707   28.6071  -77.0181 C.3       2 UNK        -0.1926 
     64 N         -80.5473   27.6707  -75.0994 N.am      2 UNK        -0.4687 
     65 C         -81.1268   28.6537  -74.4107 C.2       1 UNK         0.5165 
     66 O         -80.6992   29.8082  -74.3722 O.2       1 UNK        -0.5079 
     67 H67       -83.9466   24.7538  -75.9405 H         1 UNK         0.0900 
     68 H68       -84.2120   24.1591  -74.2997 H         1 UNK         0.0900 
     69 H69       -85.0817   25.5824  -74.8719 H         1 UNK         0.0900 
     70 H70       -84.1873   27.5292  -74.3919 H         1 UNK         0.2959 
     71 H71       -83.0331   29.1715  -73.7049 H         1 UNK         0.1079 
     72 H72       -83.0114   27.6342  -71.6157 H         1 UNK         0.0837 
     73 H73       -82.0935   29.0936  -71.6132 H         1 UNK         0.0837 
     74 H74       -79.5106   28.5862  -70.0403 H         1 UNK         0.0685 
     75 H75       -79.8533   29.4427  -71.5215 H         1 UNK         0.0685 
     76 H76       -77.7215   26.6715  -70.1648 H         1 UNK         0.1434 
     77 H77       -74.4892   27.5252  -72.8486 H         1 UNK         0.1329 
     78 H78       -78.1815   29.6688  -73.2016 H         1 UNK         0.1335 
     79 H79       -76.3986   29.3060  -75.1997 H         1 UNK         0.0680 
     80 H80       -74.7652   28.9861  -74.6799 H         1 UNK         0.0680 
     81 H81       -74.2595   30.2286  -72.1694 H         1 UNK         0.1032 
     82 H82       -74.8248   31.8429  -71.8719 H         1 UNK         0.1032 
     83 H83       -73.0608   32.6226  -73.6440 H         1 UNK         0.0461 
     84 H84       -71.9186   33.9029  -70.5373 H         1 UNK         0.3453 
     85 H85       -72.8792   34.1868  -71.9652 H         1 UNK         0.3453 
     86 H86       -72.3959   29.7959  -73.6209 H         1 UNK         0.2984 
     87 H87       -69.1805   30.2556  -75.1567 H         1 UNK         0.0554 
     88 H88       -68.9242   29.9519  -72.7049 H         1 UNK         0.0847 
     89 H89       -68.6858   28.4397  -73.5656 H         1 UNK         0.0847 
     90 H90       -70.1919   28.7385  -72.6996 H         1 UNK         0.0847 
     91 H91       -70.1203   28.7201  -76.3583 H         1 UNK         0.3141 
     92 H92       -71.2643   27.1450  -77.2009 H         1 UNK         0.0743 
     93 H93       -70.1776   25.6421  -75.5453 H         1 UNK         0.0784 
     94 H94       -71.3457   24.7531  -76.5117 H         1 UNK         0.0784 
     95 H95       -71.7421   25.2263  -74.8602 H         1 UNK         0.0784 
     96 H96       -73.6591   25.8381  -76.3417 H         1 UNK         0.3213 
     97 H97       -75.9770   27.6950  -76.9659 H         1 UNK         0.0855 
     98 H98       -75.2159   27.4174  -79.9179 H         1 UNK         0.0814 
     99 H99       -75.7719   28.8724  -79.1063 H         1 UNK         0.0814 
    100 H100      -76.8699   27.5189  -79.3179 H         1 UNK         0.0814 
    101 H101      -76.3851   25.5549  -76.9219 H         1 UNK         0.3105 
    102 H102      -76.6286   23.1982  -78.4804 H         1 UNK         0.0547 
    103 H103      -75.0749   21.2560  -78.1741 H         1 UNK         0.0837 
    104 H104      -73.7166   22.3682  -78.0066 H         1 UNK         0.0837 
    105 H105      -74.5938   22.2657  -79.5257 H         1 UNK         0.0837 
    106 H106      -76.8961   22.8675  -76.3071 H         1 UNK         0.3020 
    107 H107      -75.3272   22.3084  -73.7425 H         1 UNK         0.1245 
    108 H108      -75.2313   25.3398  -73.5251 H         1 UNK         0.0781 
    109 H109      -73.9328   24.2494  -73.1182 H         1 UNK         0.0781 
    110 H110      -74.1099   26.0882  -70.9309 H         1 UNK         0.0836 
    111 H111      -75.3312   25.9223  -69.6954 H         1 UNK         0.0836 
    112 H112      -77.5303   24.1807  -74.5095 H         1 UNK         0.3022 
    113 H113      -79.9012   21.6222  -73.8951 H         1 UNK         0.0747 
    114 H114      -81.1318   23.3160  -72.5656 H         1 UNK         0.0793 
    115 H115      -79.7961   22.6812  -71.6179 H         1 UNK         0.0793 
    116 H116      -79.6630   24.2688  -72.3632 H         1 UNK         0.0793 
    117 H117      -80.4040   24.2259  -74.7602 H         1 UNK         0.3047 
    118 H118      -79.0718   24.1431  -78.0506 H         1 UNK         0.0822 
    119 H119      -81.4233   24.4779  -78.7720 H         1 UNK         0.0807 
    120 H120      -82.0123   23.8574  -77.2284 H         1 UNK         0.0807 
    121 H121      -81.1612   22.7968  -78.3419 H         1 UNK         0.0807 
    122 H122      -80.7663   26.0629  -77.0050 H         1 UNK         0.2946 
    123 H123      -78.4975   28.0138  -75.0907 H         1 UNK         0.1144 
    124 H124      -80.0683   28.3521  -77.7165 H         1 UNK         0.0793 
    125 H125      -78.3274   28.5448  -77.5603 H         1 UNK         0.0793 
    126 H126      -79.4017   29.6498  -76.7296 H         1 UNK         0.0793 
    127 H127      -80.9559   26.7485  -74.9462 H         1 UNK         0.2896 
@<TRIPOS>BOND
     1    1    2 1    
     2    1   67 1    
     3    1   68 1    
     4    1   69 1    
     5    2    3 2    
     6    2    4 am   BACKBONE|DICT|INTERRES
     7    4    5 1    
     8    4   70 1    
     9    5    6 1    
    10    5   65 1    
    11    5   71 1    
    12    6    7 1    
    13    6   72 1    
    14    6   73 1    
    15    7    8 1    
    16    8    9 1    
    17    8   74 1    
    18    8   75 1    
    19    9   10 ar   
    20    9   14 ar   
    21   10   11 ar   
    22   10   76 1    
    23   11   12 ar   
    24   11   48 1    
    25   12   13 ar   
    26   12   77 1    
    27   13   14 ar   
    28   13   15 1    
    29   14   78 1    
    30   15   16 1    
    31   15   79 1    
    32   15   80 1    
    33   16   17 1    
    34   17   18 1    
    35   17   81 1    
    36   17   82 1    
    37   18   19 1    
    38   18   22 1    
    39   18   83 1    
    40   19   20 am   BACKBONE|DICT|INTERRES
    41   19   21 2    
    42   20   84 1    
    43   20   85 1    
    44   22   23 am   BACKBONE|DICT|INTERRES
    45   22   86 1    
    46   23   24 2    
    47   23   25 1    
    48   25   26 1    
    49   25   27 1    
    50   25   87 1    
    51   26   88 1    
    52   26   89 1    
    53   26   90 1    
    54   27   28 am   BACKBONE|DICT|INTERRES
    55   27   91 1    
    56   28   29 2    
    57   28   30 1    
    58   30   31 1    
    59   30   32 1    
    60   30   92 1    
    61   31   93 1    
    62   31   94 1    
    63   31   95 1    
    64   32   33 am   BACKBONE|DICT|INTERRES
    65   32   96 1    
    66   33   34 2    
    67   33   35 1    
    68   35   36 1    
    69   35   37 1    
    70   35   97 1    
    71   36   98 1    
    72   36   99 1    
    73   36  100 1    
    74   37   38 am   BACKBONE|DICT|INTERRES
    75   37  101 1    
    76   38   39 2    
    77   38   40 1    
    78   40   41 1    
    79   40   42 1    
    80   40  102 1    
    81   41  103 1    
    82   41  104 1    
    83   41  105 1    
    84   42   43 am   BACKBONE|DICT|INTERRES
    85   42  106 1    
    86   43   44 2    
    87   43   45 1    
    88   45   46 1    
    89   45   49 1    
    90   45  107 1    
    91   46   47 1    
    92   46  108 1    
    93   46  109 1    
    94   47   48 1    
    95   48  110 1    
    96   48  111 1    
    97   49   50 am   BACKBONE|DICT|INTERRES
    98   49  112 1    
    99   50   51 2    
   100   50   52 1    
   101   52   53 1    
   102   52   54 1    
   103   52  113 1    
   104   53  114 1    
   105   53  115 1    
   106   53  116 1    
   107   54   55 am   BACKBONE|DICT|INTERRES
   108   54  117 1    
   109   55   56 2    
   110   55   57 1    
   111   57   58 1    
   112   57   59 1    
   113   57  118 1    
   114   58  119 1    
   115   58  120 1    
   116   58  121 1    
   117   59   60 am   BACKBONE|DICT|INTERRES
   118   59  122 1    
   119   60   61 2    
   120   60   62 1    
   121   62   63 1    
   122   62   64 1    
   123   62  123 1    
   124   63  124 1    
   125   63  125 1    
   126   63  126 1    
   127   64   65 am   BACKBONE|DICT|INTERRES
   128   64  127 1    
   129   65   66 2    
@<TRIPOS>SUBSTRUCTURE
     1 UNK         1 GROUP             0       ****    0 ROOT    
