@<TRIPOS>MOLECULE
3R135
127   129    1
SMALL
USER_CHARGES


@<TRIPOS>ATOM
      1 CA        -85.9895   27.0596  -72.0900 C.3       0 UNK        -0.1998 
      2 C         -85.0065   27.5739  -73.1308 C.2       0 UNK         0.4909 
      3 O         -85.3485   27.6476  -74.3113 O.2       0 UNK        -0.5240 
      4 N         -83.7919   27.9361  -72.6987 N.am      1 UNK        -0.4739 
      5 CA        -82.6869   28.4015  -73.5460 C.3       1 UNK         0.0864 
      6 C6        -81.5472   29.0572  -72.7219 C.3       11 UNK        -0.0881 
      7 S7        -81.0854   28.1398  -71.2072 S.3       11 UNK        -0.2682 
      8 C8        -79.8439   29.2572  -70.4853 C.3       11 UNK         0.0289 
      9 C9        -78.5115   29.1192  -71.2018 C.ar      11 UNK        -0.0687 
     10 C10       -77.6340   28.0947  -70.8447 C.ar      11 UNK        -0.0823 
     11 C11       -76.4352   27.9130  -71.5388 C.ar      11 UNK        -0.0830 
     12 C12       -76.1112   28.7820  -72.5867 C.ar      11 UNK        -0.1021 
     13 C13       -76.9616   29.8440  -72.9299 C.ar      11 UNK        -0.0753 
     14 C14       -78.1623   29.9976  -72.2302 C.ar      11 UNK        -0.0933 
     15 C15       -76.6597   30.8452  -74.0495 C.3       11 UNK         0.0166 
     16 S16       -74.9962   30.7656  -74.7962 S.3       11 UNK        -0.2615 
     17 C17       -73.9219   31.2824  -73.4094 C.3       11 UNK        -0.0865 
     18 CA        -72.5533   31.8578  -73.8817 C.3       10 UNK         0.0862 
     19 C         -71.6683   32.3374  -72.6912 C.2       10 UNK         0.5551 
     20 N         -70.3503   32.1894  -72.7461 N.am      10 UNK        -0.7319 
     21 O         -72.1790   32.8833  -71.7159 O.2       10 UNK        -0.5018 
     22 N         -71.8645   30.9951  -74.8619 N.am      10 UNK        -0.4509 
     23 C         -71.4776   29.7271  -74.6731 C.2       10 UNK         0.4899 
     24 O         -71.5720   29.1263  -73.6012 O.2       10 UNK        -0.4839 
     25 CA        -70.9007   29.0350  -75.9188 C.3       9 UNK         0.0222 
     26 CB        -69.4355   29.4424  -76.1803 C.3       9 UNK        -0.1966 
     27 N         -71.0921   27.5799  -75.8924 N.am      9 UNK        -0.4218 
     28 C         -70.4119   26.6406  -75.2140 C.2       9 UNK         0.5020 
     29 O         -69.4052   26.8654  -74.5398 O.2       9 UNK        -0.5274 
     30 CA        -70.9268   25.1871  -75.2950 C.3       8 UNK         0.0270 
     31 CB        -71.2162   24.6282  -73.8903 C.3       8 UNK        -0.1976 
     32 N         -72.1265   25.0422  -76.1271 N.am      8 UNK        -0.4313 
     33 C         -72.1138   24.9065  -77.4623 C.2       8 UNK         0.5041 
     34 O         -71.0777   24.8124  -78.1216 O.2       8 UNK        -0.5577 
     35 CA        -73.4659   24.8976  -78.2060 C.3       7 UNK         0.0284 
     36 CB        -73.8680   23.4565  -78.5598 C.3       7 UNK        -0.1958 
     37 N         -74.5699   25.5370  -77.4840 N.am      7 UNK        -0.4454 
     38 C         -74.5997   26.8075  -77.0581 C.2       7 UNK         0.5089 
     39 O         -73.7108   27.6257  -77.2938 O.2       7 UNK        -0.5125 
     40 CA        -75.7774   27.2101  -76.1506 C.3       6 UNK         0.0408 
     41 CB        -76.9245   27.8103  -76.9744 C.3       6 UNK        -0.1791 
     42 N         -76.2869   26.1210  -75.3075 N.am      6 UNK        -0.4762 
     43 C         -75.5499   25.4285  -74.4234 C.2       6 UNK         0.5007 
     44 O         -74.3421   25.5977  -74.2614 O.2       6 UNK        -0.5032 
     45 CA        -76.2730   24.3300  -73.6276 C.3       5 UNK         0.0783 
     46 C46       -77.1711   24.9246  -72.5146 C.3       11 UNK        -0.0857 
     47 S47       -76.2788   25.1625  -70.9408 S.3       11 UNK        -0.2512 
     48 C48       -75.4764   26.7916  -71.1524 C.3       11 UNK         0.0225 
     49 N         -77.0233   23.4770  -74.5479 N.am      5 UNK        -0.4615 
     50 C         -76.4742   22.4962  -75.2785 C.2       4 UNK         0.5053 
     51 O         -75.3053   22.1295  -75.1615 O.2       4 UNK        -0.5105 
     52 CA        -77.3677   21.8167  -76.3323 C.3       4 UNK         0.0263 
     53 CB        -78.0007   20.5401  -75.7563 C.3       4 UNK        -0.1981 
     54 N         -78.4247   22.6901  -76.8482 N.am      4 UNK        -0.4224 
     55 C         -78.2151   23.8083  -77.5582 C.2       3 UNK         0.4895 
     56 O         -77.1033   24.1977  -77.9118 O.2       3 UNK        -0.5091 
     57 CA        -79.4509   24.6646  -77.8797 C.3       3 UNK         0.0250 
     58 CB        -80.0653   24.2391  -79.2224 C.3       3 UNK        -0.1996 
     59 N         -80.4796   24.6284  -76.8341 N.am      3 UNK        -0.4254 
     60 C         -80.3077   25.0395  -75.5691 C.2       2 UNK         0.5004 
     61 O         -79.2388   25.4646  -75.1218 O.2       2 UNK        -0.5226 
     62 CA        -81.5205   24.8828  -74.6344 C.3       2 UNK         0.0269 
     63 CB        -81.2541   23.7732  -73.6037 C.3       2 UNK        -0.1926 
     64 N         -81.8892   26.1123  -73.9270 N.am      2 UNK        -0.4687 
     65 C         -82.1734   27.2953  -74.4920 C.2       1 UNK         0.5165 
     66 O         -82.1054   27.5183  -75.7020 O.2       1 UNK        -0.5079 
     67 H67       -86.2915   26.0407  -72.3307 H         1 UNK         0.0900 
     68 H68       -86.8815   27.6852  -72.0746 H         1 UNK         0.0900 
     69 H69       -85.5594   27.0580  -71.0885 H         1 UNK         0.0900 
     70 H70       -83.5656   27.8535  -71.7169 H         1 UNK         0.2959 
     71 H71       -83.0956   29.1795  -74.1953 H         1 UNK         0.1079 
     72 H72       -81.8642   30.0553  -72.4157 H         1 UNK         0.0837 
     73 H73       -80.6603   29.2075  -73.3403 H         1 UNK         0.0837 
     74 H74       -80.2018   30.2873  -70.5204 H         1 UNK         0.0685 
     75 H75       -79.7202   29.0125  -69.4292 H         1 UNK         0.0685 
     76 H76       -77.8984   27.4208  -70.0413 H         1 UNK         0.1434 
     77 H77       -75.1887   28.6229  -73.1258 H         1 UNK         0.1329 
     78 H78       -78.8380   30.7986  -72.4978 H         1 UNK         0.1335 
     79 H79       -77.3877   30.6897  -74.8469 H         1 UNK         0.0680 
     80 H80       -76.8214   31.8591  -73.6800 H         1 UNK         0.0680 
     81 H81       -73.7633   30.4321  -72.7454 H         1 UNK         0.1032 
     82 H82       -74.4578   32.0274  -72.8185 H         1 UNK         0.1032 
     83 H83       -72.7755   32.7725  -74.4323 H         1 UNK         0.0461 
     84 H84       -69.9223   31.7457  -73.5425 H         1 UNK         0.3453 
     85 H85       -69.7826   32.5119  -71.9784 H         1 UNK         0.3453 
     86 H86       -71.7314   31.4077  -75.7739 H         1 UNK         0.2984 
     87 H87       -71.4897   29.3724  -76.7733 H         1 UNK         0.0554 
     88 H88       -69.3609   30.5078  -76.4002 H         1 UNK         0.0847 
     89 H89       -68.7966   29.2506  -75.3179 H         1 UNK         0.0847 
     90 H90       -69.0193   28.9072  -77.0338 H         1 UNK         0.0847 
     91 H91       -71.9282   27.2780  -76.3824 H         1 UNK         0.3141 
     92 H92       -70.1245   24.5872  -75.7297 H         1 UNK         0.0743 
     93 H93       -70.3033   24.5806  -73.2953 H         1 UNK         0.0784 
     94 H94       -71.9225   25.2541  -73.3442 H         1 UNK         0.0784 
     95 H95       -71.6251   23.6187  -73.9369 H         1 UNK         0.0784 
     96 H96       -73.0162   25.1413  -75.6438 H         1 UNK         0.3213 
     97 H97       -73.3237   25.4524  -79.1356 H         1 UNK         0.0855 
     98 H98       -73.0739   22.9511  -79.1112 H         1 UNK         0.0814 
     99 H99       -74.7592   23.4353  -79.1874 H         1 UNK         0.0814 
    100 H100      -74.0732   22.8658  -77.6660 H         1 UNK         0.0814 
    101 H101      -75.3953   24.9664  -77.3210 H         1 UNK         0.3105 
    102 H102      -75.4091   27.9802  -75.4732 H         1 UNK         0.0547 
    103 H103      -76.5905   28.7012  -77.5078 H         1 UNK         0.0837 
    104 H104      -77.2942   27.1057  -77.7186 H         1 UNK         0.0837 
    105 H105      -77.7602   28.1064  -76.3398 H         1 UNK         0.0837 
    106 H106      -77.2813   25.9209  -75.3665 H         1 UNK         0.3020 
    107 H107      -75.5052   23.7117  -73.1553 H         1 UNK         0.1245 
    108 H108      -77.9811   24.2294  -72.2896 H         1 UNK         0.0781 
    109 H109      -77.6694   25.8453  -72.8246 H         1 UNK         0.0781 
    110 H110      -74.6718   26.6990  -71.8822 H         1 UNK         0.0836 
    111 H111      -74.9942   27.0616  -70.2121 H         1 UNK         0.0836 
    112 H112      -77.9732   23.7658  -74.7436 H         1 UNK         0.3022 
    113 H113      -76.7275   21.5359  -77.1716 H         1 UNK         0.0747 
    114 H114      -78.5717   20.0028  -76.5138 H         1 UNK         0.0793 
    115 H115      -77.2339   19.8574  -75.3872 H         1 UNK         0.0793 
    116 H116      -78.6692   20.7601  -74.9228 H         1 UNK         0.0793 
    117 H117      -79.3752   22.4451  -76.6129 H         1 UNK         0.3047 
    118 H118      -79.1191   25.6996  -77.9719 H         1 UNK         0.0822 
    119 H119      -80.8842   24.8983  -79.5113 H         1 UNK         0.0807 
    120 H120      -80.4499   23.2190  -79.1880 H         1 UNK         0.0807 
    121 H121      -79.3228   24.2805  -80.0209 H         1 UNK         0.0807 
    122 H122      -81.3891   24.2907  -77.1154 H         1 UNK         0.2946 
    123 H123      -82.3863   24.5914  -75.2329 H         1 UNK         0.1144 
    124 H124      -82.1364   23.5766  -72.9943 H         1 UNK         0.0793 
    125 H125      -80.4356   24.0367  -72.9325 H         1 UNK         0.0793 
    126 H126      -80.9861   22.8359  -74.0933 H         1 UNK         0.0793 
    127 H127      -81.9519   26.0524  -72.9208 H         1 UNK         0.2896 
@<TRIPOS>BOND
     1    1    2 1    
     2    1   67 1    
     3    1   68 1    
     4    1   69 1    
     5    2    3 2    
     6    2    4 am   BACKBONE|DICT|INTERRES
     7    4    5 1    
     8    4   70 1    
     9    5    6 1    
    10    5   65 1    
    11    5   71 1    
    12    6    7 1    
    13    6   72 1    
    14    6   73 1    
    15    7    8 1    
    16    8    9 1    
    17    8   74 1    
    18    8   75 1    
    19    9   10 ar   
    20    9   14 ar   
    21   10   11 ar   
    22   10   76 1    
    23   11   12 ar   
    24   11   48 1    
    25   12   13 ar   
    26   12   77 1    
    27   13   14 ar   
    28   13   15 1    
    29   14   78 1    
    30   15   16 1    
    31   15   79 1    
    32   15   80 1    
    33   16   17 1    
    34   17   18 1    
    35   17   81 1    
    36   17   82 1    
    37   18   19 1    
    38   18   22 1    
    39   18   83 1    
    40   19   20 am   BACKBONE|DICT|INTERRES
    41   19   21 2    
    42   20   84 1    
    43   20   85 1    
    44   22   23 am   BACKBONE|DICT|INTERRES
    45   22   86 1    
    46   23   24 2    
    47   23   25 1    
    48   25   26 1    
    49   25   27 1    
    50   25   87 1    
    51   26   88 1    
    52   26   89 1    
    53   26   90 1    
    54   27   28 am   BACKBONE|DICT|INTERRES
    55   27   91 1    
    56   28   29 2    
    57   28   30 1    
    58   30   31 1    
    59   30   32 1    
    60   30   92 1    
    61   31   93 1    
    62   31   94 1    
    63   31   95 1    
    64   32   33 am   BACKBONE|DICT|INTERRES
    65   32   96 1    
    66   33   34 2    
    67   33   35 1    
    68   35   36 1    
    69   35   37 1    
    70   35   97 1    
    71   36   98 1    
    72   36   99 1    
    73   36  100 1    
    74   37   38 am   BACKBONE|DICT|INTERRES
    75   37  101 1    
    76   38   39 2    
    77   38   40 1    
    78   40   41 1    
    79   40   42 1    
    80   40  102 1    
    81   41  103 1    
    82   41  104 1    
    83   41  105 1    
    84   42   43 am   BACKBONE|DICT|INTERRES
    85   42  106 1    
    86   43   44 2    
    87   43   45 1    
    88   45   46 1    
    89   45   49 1    
    90   45  107 1    
    91   46   47 1    
    92   46  108 1    
    93   46  109 1    
    94   47   48 1    
    95   48  110 1    
    96   48  111 1    
    97   49   50 am   BACKBONE|DICT|INTERRES
    98   49  112 1    
    99   50   51 2    
   100   50   52 1    
   101   52   53 1    
   102   52   54 1    
   103   52  113 1    
   104   53  114 1    
   105   53  115 1    
   106   53  116 1    
   107   54   55 am   BACKBONE|DICT|INTERRES
   108   54  117 1    
   109   55   56 2    
   110   55   57 1    
   111   57   58 1    
   112   57   59 1    
   113   57  118 1    
   114   58  119 1    
   115   58  120 1    
   116   58  121 1    
   117   59   60 am   BACKBONE|DICT|INTERRES
   118   59  122 1    
   119   60   61 2    
   120   60   62 1    
   121   62   63 1    
   122   62   64 1    
   123   62  123 1    
   124   63  124 1    
   125   63  125 1    
   126   63  126 1    
   127   64   65 am   BACKBONE|DICT|INTERRES
   128   64  127 1    
   129   65   66 2    
@<TRIPOS>SUBSTRUCTURE
     1 UNK         1 GROUP             0       ****    0 ROOT    
