@<TRIPOS>MOLECULE
3R135
127   129    1
SMALL
USER_CHARGES


@<TRIPOS>ATOM
      1 CA        -75.2141   23.2506  -71.4629 C.3       0 UNK        -0.1998 
      2 C         -76.7191   23.4298  -71.3380 C.2       0 UNK         0.4909 
      3 O         -77.3069   22.9969  -70.3468 O.2       0 UNK        -0.5240 
      4 N         -77.3475   24.0664  -72.3354 N.am      1 UNK        -0.4739 
      5 CA        -78.7874   24.3674  -72.3624 C.3       1 UNK         0.0864 
      6 C6        -79.1503   25.4255  -73.4361 C.3       11 UNK        -0.0881 
      7 S7        -78.0568   26.8779  -73.4462 S.3       11 UNK        -0.2682 
      8 C8        -78.8926   28.0069  -72.2929 C.3       11 UNK         0.0289 
      9 C9        -78.2964   29.3985  -72.4237 C.ar      11 UNK        -0.0687 
     10 C10       -78.6395   30.1827  -73.5267 C.ar      11 UNK        -0.0823 
     11 C11       -78.0249   31.4161  -73.7383 C.ar      11 UNK        -0.0830 
     12 C12       -77.1274   31.9072  -72.7877 C.ar      11 UNK        -0.1021 
     13 C13       -76.8031   31.1536  -71.6537 C.ar      11 UNK        -0.0753 
     14 C14       -77.3805   29.8887  -71.4852 C.ar      11 UNK        -0.0933 
     15 C15       -75.8673   31.7266  -70.5939 C.3       11 UNK         0.0166 
     16 S16       -74.3318   32.4254  -71.2934 S.3       11 UNK        -0.2615 
     17 C17       -73.0760   31.1974  -70.8058 C.3       11 UNK        -0.0865 
     18 CA        -71.9571   31.0494  -71.8704 C.3       10 UNK         0.0862 
     19 C         -70.7172   30.3262  -71.2617 C.2       10 UNK         0.5551 
     20 N         -70.3504   29.1252  -71.6925 N.am      10 UNK        -0.7319 
     21 O         -70.0689   30.8762  -70.3747 O.2       10 UNK        -0.5018 
     22 N         -72.4779   30.4547  -73.1115 N.am      10 UNK        -0.4509 
     23 C         -71.8384   30.4239  -74.2886 C.2       10 UNK         0.4899 
     24 O         -70.7923   31.0352  -74.5123 O.2       10 UNK        -0.4839 
     25 CA        -72.4655   29.5384  -75.3903 C.3       9 UNK         0.0222 
     26 CB        -71.4299   29.0641  -76.4309 C.3       9 UNK        -0.1966 
     27 N         -73.2214   28.3917  -74.8642 N.am      9 UNK        -0.4218 
     28 C         -72.7718   27.4405  -74.0273 C.2       9 UNK         0.5020 
     29 O         -71.6119   27.3703  -73.6205 O.2       9 UNK        -0.5274 
     30 CA        -73.8014   26.4304  -73.5124 C.3       8 UNK         0.0270 
     31 CB        -74.7391   27.1028  -72.4955 C.3       8 UNK        -0.1976 
     32 N         -74.5648   25.8571  -74.6218 N.am      8 UNK        -0.4313 
     33 C         -74.2662   24.6860  -75.2036 C.2       8 UNK         0.5041 
     34 O         -73.4052   23.9098  -74.7879 O.2       8 UNK        -0.5577 
     35 CA        -75.0531   24.3105  -76.4701 C.3       7 UNK         0.0284 
     36 CB        -76.3379   23.5501  -76.0984 C.3       7 UNK        -0.1958 
     37 N         -75.3738   25.4768  -77.2987 N.am      7 UNK        -0.4454 
     38 C         -74.4547   26.2035  -77.9570 C.2       7 UNK         0.5089 
     39 O         -73.2604   25.9063  -77.9965 O.2       7 UNK        -0.5125 
     40 CA        -74.9148   27.4783  -78.6945 C.3       6 UNK         0.0408 
     41 CB        -74.9406   27.2362  -80.2122 C.3       6 UNK        -0.1791 
     42 N         -76.2170   28.0034  -78.2778 N.am      6 UNK        -0.4762 
     43 C         -76.5342   28.4307  -77.0471 C.2       6 UNK         0.5007 
     44 O         -75.7468   28.4264  -76.0979 O.2       6 UNK        -0.5032 
     45 CA        -78.0065   28.8449  -76.8250 C.3       5 UNK         0.0783 
     46 C46       -78.2800   30.3333  -77.1796 C.3       11 UNK        -0.0857 
     47 S47       -77.2308   31.5906  -76.3646 S.3       11 UNK        -0.2512 
     48 C48       -78.2946   32.1966  -75.0129 C.3       11 UNK         0.0225 
     49 N         -78.9780   27.9884  -77.5280 N.am      5 UNK        -0.4615 
     50 C         -79.0276   26.6486  -77.5381 C.2       4 UNK         0.5053 
     51 O         -78.2086   25.9255  -76.9706 O.2       4 UNK        -0.5105 
     52 CA        -80.1456   26.0249  -78.3939 C.3       4 UNK         0.0263 
     53 CB        -79.8601   26.2436  -79.8905 C.3       4 UNK        -0.1981 
     54 N         -80.2954   24.5866  -78.1593 N.am      4 UNK        -0.4224 
     55 C         -80.7970   24.0287  -77.0502 C.2       3 UNK         0.4895 
     56 O         -81.2645   24.6756  -76.1112 O.2       3 UNK        -0.5091 
     57 CA        -80.7834   22.4932  -76.9648 C.3       3 UNK         0.0250 
     58 CB        -80.0377   21.7851  -78.1180 C.3       3 UNK        -0.1996 
     59 N         -80.1909   22.1114  -75.6872 N.am      3 UNK        -0.4254 
     60 C         -80.5290   21.0486  -74.9469 C.2       2 UNK         0.5004 
     61 O         -81.3878   20.2294  -75.2761 O.2       2 UNK        -0.5226 
     62 CA        -79.7738   20.8530  -73.6173 C.3       2 UNK         0.0269 
     63 CB        -78.7531   19.7097  -73.7430 C.3       2 UNK        -0.1926 
     64 N         -79.0740   22.0635  -73.1758 N.am      2 UNK        -0.4687 
     65 C         -79.6602   23.1130  -72.5809 C.2       1 UNK         0.5165 
     66 O         -80.8454   23.1312  -72.2469 O.2       1 UNK        -0.5079 
     67 H67       -74.8424   23.5887  -72.4289 H         1 UNK         0.0900 
     68 H68       -74.9494   22.1996  -71.3495 H         1 UNK         0.0900 
     69 H69       -74.7031   23.8177  -70.6854 H         1 UNK         0.0900 
     70 H70       -76.8120   24.4506  -73.1000 H         1 UNK         0.2959 
     71 H71       -79.0561   24.7748  -71.3851 H         1 UNK         0.1079 
     72 H72       -79.0905   24.9926  -74.4361 H         1 UNK         0.0837 
     73 H73       -80.1848   25.7548  -73.3204 H         1 UNK         0.0837 
     74 H74       -78.7905   27.6297  -71.2743 H         1 UNK         0.0685 
     75 H75       -79.9604   28.0432  -72.5135 H         1 UNK         0.0685 
     76 H76       -79.3529   29.8081  -74.2466 H         1 UNK         0.1434 
     77 H77       -76.6684   32.8750  -72.9373 H         1 UNK         0.1329 
     78 H78       -77.1221   29.2871  -70.6246 H         1 UNK         0.1335 
     79 H79       -75.6294   30.9802  -69.8348 H         1 UNK         0.0680 
     80 H80       -76.3971   32.5252  -70.0731 H         1 UNK         0.0680 
     81 H81       -72.6657   31.5270  -69.8489 H         1 UNK         0.1032 
     82 H82       -73.5455   30.2302  -70.6170 H         1 UNK         0.1032 
     83 H83       -71.6079   32.0523  -72.1243 H         1 UNK         0.0461 
     84 H84       -70.8619   28.6425  -72.4259 H         1 UNK         0.3453 
     85 H85       -69.5424   28.6860  -71.2818 H         1 UNK         0.3453 
     86 H86       -73.3451   29.9469  -73.0282 H         1 UNK         0.2984 
     87 H87       -73.1927   30.1659  -75.9077 H         1 UNK         0.0554 
     88 H88       -71.8943   28.4480  -77.2009 H         1 UNK         0.0847 
     89 H89       -70.6347   28.4779  -75.9690 H         1 UNK         0.0847 
     90 H90       -70.9610   29.9106  -76.9337 H         1 UNK         0.0847 
     91 H91       -74.1980   28.3650  -75.1563 H         1 UNK         0.3141 
     92 H92       -73.2584   25.6440  -72.9836 H         1 UNK         0.0743 
     93 H93       -74.1725   27.5383  -71.6713 H         1 UNK         0.0784 
     94 H94       -75.3247   27.9054  -72.9459 H         1 UNK         0.0784 
     95 H95       -75.4322   26.3842  -72.0599 H         1 UNK         0.0784 
     96 H96       -75.2656   26.4474  -75.0540 H         1 UNK         0.3213 
     97 H97       -74.4256   23.6425  -77.0642 H         1 UNK         0.0855 
     98 H98       -76.9914   24.1491  -75.4648 H         1 UNK         0.0814 
     99 H99       -76.1042   22.6342  -75.5539 H         1 UNK         0.0814 
    100 H100      -76.9023   23.2655  -76.9864 H         1 UNK         0.0814 
    101 H101      -76.3471   25.7751  -77.3037 H         1 UNK         0.3105 
    102 H102      -74.1731   28.2518  -78.4853 H         1 UNK         0.0547 
    103 H103      -75.6852   26.4886  -80.4886 H         1 UNK         0.0837 
    104 H104      -75.1632   28.1528  -80.7586 H         1 UNK         0.0837 
    105 H105      -73.9732   26.8784  -80.5678 H         1 UNK         0.0837 
    106 H106      -76.9430   28.0131  -78.9792 H         1 UNK         0.3020 
    107 H107      -78.1871   28.6967  -75.7627 H         1 UNK         0.1245 
    108 H108      -79.3250   30.5703  -76.9752 H         1 UNK         0.0781 
    109 H109      -78.1606   30.4768  -78.2552 H         1 UNK         0.0781 
    110 H110      -78.0846   33.2552  -74.8527 H         1 UNK         0.0836 
    111 H111      -79.3489   32.1381  -75.2862 H         1 UNK         0.0836 
    112 H112      -79.6910   28.4831  -78.0440 H         1 UNK         0.3022 
    113 H113      -81.0870   26.5145  -78.1353 H         1 UNK         0.0747 
    114 H114      -79.8075   27.3047  -80.1371 H         1 UNK         0.0793 
    115 H115      -80.6469   25.8132  -80.5107 H         1 UNK         0.0793 
    116 H116      -78.9133   25.7922  -80.1908 H         1 UNK         0.0793 
    117 H117      -79.9035   23.9762  -78.8607 H         1 UNK         0.3047 
    118 H118      -81.8289   22.1781  -76.9839 H         1 UNK         0.0822 
    119 H119      -80.4921   22.0074  -79.0844 H         1 UNK         0.0807 
    120 H120      -80.0743   20.7021  -77.9983 H         1 UNK         0.0807 
    121 H121      -78.9864   22.0730  -78.1617 H         1 UNK         0.0807 
    122 H122      -79.5146   22.7590  -75.3109 H         1 UNK         0.2946 
    123 H123      -80.5122   20.5755  -72.8613 H         1 UNK         0.1144 
    124 H124      -79.2424   18.7803  -74.0380 H         1 UNK         0.0793 
    125 H125      -78.2496   19.5213  -72.7945 H         1 UNK         0.0793 
    126 H126      -77.9906   19.9281  -74.4919 H         1 UNK         0.0793 
    127 H127      -78.0876   22.1247  -73.3822 H         1 UNK         0.2896 
@<TRIPOS>BOND
     1    1    2 1    
     2    1   67 1    
     3    1   68 1    
     4    1   69 1    
     5    2    3 2    
     6    2    4 am   BACKBONE|DICT|INTERRES
     7    4    5 1    
     8    4   70 1    
     9    5    6 1    
    10    5   65 1    
    11    5   71 1    
    12    6    7 1    
    13    6   72 1    
    14    6   73 1    
    15    7    8 1    
    16    8    9 1    
    17    8   74 1    
    18    8   75 1    
    19    9   10 ar   
    20    9   14 ar   
    21   10   11 ar   
    22   10   76 1    
    23   11   12 ar   
    24   11   48 1    
    25   12   13 ar   
    26   12   77 1    
    27   13   14 ar   
    28   13   15 1    
    29   14   78 1    
    30   15   16 1    
    31   15   79 1    
    32   15   80 1    
    33   16   17 1    
    34   17   18 1    
    35   17   81 1    
    36   17   82 1    
    37   18   19 1    
    38   18   22 1    
    39   18   83 1    
    40   19   20 am   BACKBONE|DICT|INTERRES
    41   19   21 2    
    42   20   84 1    
    43   20   85 1    
    44   22   23 am   BACKBONE|DICT|INTERRES
    45   22   86 1    
    46   23   24 2    
    47   23   25 1    
    48   25   26 1    
    49   25   27 1    
    50   25   87 1    
    51   26   88 1    
    52   26   89 1    
    53   26   90 1    
    54   27   28 am   BACKBONE|DICT|INTERRES
    55   27   91 1    
    56   28   29 2    
    57   28   30 1    
    58   30   31 1    
    59   30   32 1    
    60   30   92 1    
    61   31   93 1    
    62   31   94 1    
    63   31   95 1    
    64   32   33 am   BACKBONE|DICT|INTERRES
    65   32   96 1    
    66   33   34 2    
    67   33   35 1    
    68   35   36 1    
    69   35   37 1    
    70   35   97 1    
    71   36   98 1    
    72   36   99 1    
    73   36  100 1    
    74   37   38 am   BACKBONE|DICT|INTERRES
    75   37  101 1    
    76   38   39 2    
    77   38   40 1    
    78   40   41 1    
    79   40   42 1    
    80   40  102 1    
    81   41  103 1    
    82   41  104 1    
    83   41  105 1    
    84   42   43 am   BACKBONE|DICT|INTERRES
    85   42  106 1    
    86   43   44 2    
    87   43   45 1    
    88   45   46 1    
    89   45   49 1    
    90   45  107 1    
    91   46   47 1    
    92   46  108 1    
    93   46  109 1    
    94   47   48 1    
    95   48  110 1    
    96   48  111 1    
    97   49   50 am   BACKBONE|DICT|INTERRES
    98   49  112 1    
    99   50   51 2    
   100   50   52 1    
   101   52   53 1    
   102   52   54 1    
   103   52  113 1    
   104   53  114 1    
   105   53  115 1    
   106   53  116 1    
   107   54   55 am   BACKBONE|DICT|INTERRES
   108   54  117 1    
   109   55   56 2    
   110   55   57 1    
   111   57   58 1    
   112   57   59 1    
   113   57  118 1    
   114   58  119 1    
   115   58  120 1    
   116   58  121 1    
   117   59   60 am   BACKBONE|DICT|INTERRES
   118   59  122 1    
   119   60   61 2    
   120   60   62 1    
   121   62   63 1    
   122   62   64 1    
   123   62  123 1    
   124   63  124 1    
   125   63  125 1    
   126   63  126 1    
   127   64   65 am   BACKBONE|DICT|INTERRES
   128   64  127 1    
   129   65   66 2    
@<TRIPOS>SUBSTRUCTURE
     1 UNK         1 GROUP             0       ****    0 ROOT    
