@<TRIPOS>MOLECULE
3R135
127   129    1
SMALL
USER_CHARGES


@<TRIPOS>ATOM
      1 CA        -77.5774   31.6576  -74.9492 C.3       0 UNK        -0.1998 
      2 C         -78.2507   30.3232  -74.6684 C.2       0 UNK         0.4909 
      3 O         -77.7015   29.2788  -75.0189 O.2       0 UNK        -0.5240 
      4 N         -79.4315   30.3496  -74.0356 N.am      1 UNK        -0.4739 
      5 CA        -80.2196   29.1706  -73.6503 C.3       1 UNK         0.0864 
      6 C6        -81.4842   29.5511  -72.8393 C.3       11 UNK        -0.0881 
      7 S7        -81.1162   30.5861  -71.3818 S.3       11 UNK        -0.2682 
      8 C8        -81.0642   29.3509  -70.0416 C.3       11 UNK         0.0289 
      9 C9        -79.8956   28.3807  -70.1727 C.ar      11 UNK        -0.0687 
     10 C10       -80.1201   27.0006  -70.1613 C.ar      11 UNK        -0.0823 
     11 C11       -79.0490   26.1046  -70.2402 C.ar      11 UNK        -0.0830 
     12 C12       -77.7467   26.5982  -70.3628 C.ar      11 UNK        -0.1021 
     13 C13       -77.5070   27.9764  -70.3822 C.ar      11 UNK        -0.0753 
     14 C14       -78.5851   28.8596  -70.2680 C.ar      11 UNK        -0.0933 
     15 C15       -76.0825   28.5082  -70.4813 C.3       11 UNK         0.0166 
     16 S16       -75.8754   29.6795  -71.8606 S.3       11 UNK        -0.2615 
     17 C17       -74.0745   29.9441  -71.7959 C.3       11 UNK        -0.0865 
     18 CA        -73.5520   30.8323  -72.9550 C.3       10 UNK         0.0862 
     19 C         -72.0413   31.1475  -72.7460 C.2       10 UNK         0.5551 
     20 N         -71.1311   30.6005  -73.5420 N.am      10 UNK        -0.7319 
     21 O         -71.6930   31.9024  -71.8416 O.2       10 UNK        -0.5018 
     22 N         -73.9093   30.2786  -74.2756 N.am      10 UNK        -0.4509 
     23 C         -73.8289   30.9455  -75.4334 C.2       10 UNK         0.4899 
     24 O         -73.4006   32.0958  -75.5338 O.2       10 UNK        -0.4839 
     25 CA        -74.2812   30.1818  -76.6862 C.3       9 UNK         0.0222 
     26 CB        -74.4026   31.0939  -77.9267 C.3       9 UNK        -0.1966 
     27 N         -73.3545   29.0764  -76.9389 N.am      9 UNK        -0.4218 
     28 C         -73.6079   28.0219  -77.7237 C.2       9 UNK         0.5020 
     29 O         -74.6484   27.8931  -78.3691 O.2       9 UNK        -0.5274 
     30 CA        -72.5275   26.9327  -77.8316 C.3       8 UNK         0.0270 
     31 CB        -71.5423   26.8812  -76.6442 C.3       8 UNK        -0.1976 
     32 N         -73.1693   25.6274  -78.0110 N.am      8 UNK        -0.4313 
     33 C         -72.7270   24.6659  -78.8292 C.2       8 UNK         0.5041 
     34 O         -71.6742   24.7424  -79.4665 O.2       8 UNK        -0.5577 
     35 CA        -73.5884   23.3975  -78.9235 C.3       7 UNK         0.0284 
     36 CB        -73.0091   22.3349  -79.8810 C.3       7 UNK        -0.1958 
     37 N         -73.7642   22.8316  -77.5881 N.am      7 UNK        -0.4454 
     38 C         -74.8121   22.0983  -77.1961 C.2       7 UNK         0.5089 
     39 O         -75.7310   21.7620  -77.9452 O.2       7 UNK        -0.5125 
     40 CA        -74.8732   21.6841  -75.7185 C.3       6 UNK         0.0408 
     41 CB        -73.5652   21.9089  -74.9286 C.3       6 UNK        -0.1791 
     42 N         -75.9568   22.4400  -75.1058 N.am      6 UNK        -0.4762 
     43 C         -76.6890   22.0705  -74.0457 C.2       6 UNK         0.5007 
     44 O         -76.5422   20.9967  -73.4589 O.2       6 UNK        -0.5032 
     45 CA        -77.7592   23.0824  -73.5699 C.3       5 UNK         0.0783 
     46 C46       -78.2595   22.8441  -72.1207 C.3       11 UNK        -0.0857 
     47 S47       -79.7263   23.8676  -71.7406 S.3       11 UNK        -0.2512 
     48 C48       -79.3011   24.6073  -70.1329 C.3       11 UNK         0.0225 
     49 N         -77.3328   24.4630  -73.8246 N.am      5 UNK        -0.4615 
     50 C         -76.2706   25.0854  -73.2930 C.2       4 UNK         0.5053 
     51 O         -75.5844   24.6113  -72.3869 O.2       4 UNK        -0.5105 
     52 CA        -75.8855   26.4562  -73.8829 C.3       4 UNK         0.0263 
     53 CB        -74.3563   26.6061  -74.0050 C.3       4 UNK        -0.1981 
     54 N         -76.5462   26.7763  -75.1551 N.am      4 UNK        -0.4224 
     55 C         -76.4424   26.1270  -76.3235 C.2       3 UNK         0.4895 
     56 O         -75.6656   25.1898  -76.5188 O.2       3 UNK        -0.5091 
     57 CA        -77.4300   26.5654  -77.4240 C.3       3 UNK         0.0250 
     58 CB        -77.3398   25.6852  -78.6894 C.3       3 UNK        -0.1996 
     59 N         -78.8130   26.6293  -76.9277 N.am      3 UNK        -0.4254 
     60 C         -79.5159   25.6342  -76.3648 C.2       2 UNK         0.5004 
     61 O         -79.0940   24.4844  -76.2418 O.2       2 UNK        -0.5226 
     62 CA        -80.8779   26.0151  -75.7572 C.3       2 UNK         0.0269 
     63 CB        -81.6397   24.8000  -75.1954 C.3       2 UNK        -0.1926 
     64 N         -80.6799   26.9902  -74.6817 N.am      2 UNK        -0.4687 
     65 C         -80.6091   28.3131  -74.8722 C.2       1 UNK         0.5165 
     66 O         -80.8258   28.8498  -75.9624 O.2       1 UNK        -0.5079 
     67 H67       -76.6755   31.7522  -74.3450 H         1 UNK         0.0900 
     68 H68       -77.2950   31.7225  -75.9995 H         1 UNK         0.0900 
     69 H69       -78.2307   32.4991  -74.7202 H         1 UNK         0.0900 
     70 H70       -79.8344   31.2371  -73.7722 H         1 UNK         0.2959 
     71 H71       -79.5708   28.5620  -73.0168 H         1 UNK         0.1079 
     72 H72       -82.0170   28.6556  -72.5129 H         1 UNK         0.0837 
     73 H73       -82.1847   30.1046  -73.4680 H         1 UNK         0.0837 
     74 H74       -80.9756   29.8744  -69.0888 H         1 UNK         0.0685 
     75 H75       -82.0163   28.8187  -70.0113 H         1 UNK         0.0685 
     76 H76       -81.1278   26.6194  -70.0655 H         1 UNK         0.1434 
     77 H77       -76.9178   25.9058  -70.4198 H         1 UNK         0.1329 
     78 H78       -78.4041   29.9259  -70.2651 H         1 UNK         0.1335 
     79 H79       -75.3774   27.6851  -70.6091 H         1 UNK         0.0680 
     80 H80       -75.8207   29.0039  -69.5456 H         1 UNK         0.0680 
     81 H81       -73.8407   30.3983  -70.8306 H         1 UNK         0.1032 
     82 H82       -73.5734   28.9743  -71.8071 H         1 UNK         0.1032 
     83 H83       -74.0646   31.7934  -72.8775 H         1 UNK         0.0461 
     84 H84       -70.1571   30.8152  -73.3972 H         1 UNK         0.3453 
     85 H85       -71.4057   29.9728  -74.2770 H         1 UNK         0.3453 
     86 H86       -74.3091   29.3528  -74.2704 H         1 UNK         0.2984 
     87 H87       -75.2683   29.7672  -76.4688 H         1 UNK         0.0554 
     88 H88       -75.0550   31.9442  -77.7240 H         1 UNK         0.0847 
     89 H89       -74.8287   30.5624  -78.7773 H         1 UNK         0.0847 
     90 H90       -73.4333   31.4899  -78.2315 H         1 UNK         0.0847 
     91 H91       -72.4657   29.1237  -76.4616 H         1 UNK         0.3141 
     92 H92       -71.9588   27.1785  -78.7309 H         1 UNK         0.0743 
     93 H93       -72.0509   26.7189  -75.6954 H         1 UNK         0.0784 
     94 H94       -70.8229   26.0719  -76.7711 H         1 UNK         0.0784 
     95 H95       -70.9624   27.8009  -76.5625 H         1 UNK         0.0784 
     96 H96       -74.0686   25.5060  -77.5460 H         1 UNK         0.3213 
     97 H97       -74.5614   23.7130  -79.3077 H         1 UNK         0.0855 
     98 H98       -72.0408   21.9699  -79.5369 H         1 UNK         0.0814 
     99 H99       -72.8688   22.7454  -80.8818 H         1 UNK         0.0814 
    100 H100      -73.6758   21.4779  -79.9760 H         1 UNK         0.0814 
    101 H101      -73.0681   23.0928  -76.9036 H         1 UNK         0.3105 
    102 H102      -75.1162   20.6198  -75.6970 H         1 UNK         0.0547 
    103 H103      -73.6496   21.5124  -73.9166 H         1 UNK         0.0837 
    104 H104      -73.3151   22.9671  -74.8414 H         1 UNK         0.0837 
    105 H105      -72.7243   21.3975  -75.3991 H         1 UNK         0.0837 
    106 H106      -76.1519   23.3341  -75.5472 H         1 UNK         0.3020 
    107 H107      -78.6094   22.9033  -74.2297 H         1 UNK         0.1245 
    108 H108      -77.4589   23.0293  -71.4041 H         1 UNK         0.0781 
    109 H109      -78.5536   21.8023  -71.9820 H         1 UNK         0.0781 
    110 H110      -78.4404   24.1075  -69.6872 H         1 UNK         0.0836 
    111 H111      -80.1285   24.4285  -69.4445 H         1 UNK         0.0836 
    112 H112      -77.8183   24.9108  -74.5913 H         1 UNK         0.3022 
    113 H113      -76.2484   27.1968  -73.1730 H         1 UNK         0.0747 
    114 H114      -74.0830   27.5306  -74.5071 H         1 UNK         0.0793 
    115 H115      -73.8852   26.6145  -73.0215 H         1 UNK         0.0793 
    116 H116      -73.9201   25.7782  -74.5648 H         1 UNK         0.0793 
    117 H117      -77.1521   27.5983  -75.1226 H         1 UNK         0.3047 
    118 H118      -77.1574   27.5845  -77.7013 H         1 UNK         0.0822 
    119 H119      -78.0406   26.0170  -79.4550 H         1 UNK         0.0807 
    120 H120      -77.5482   24.6367  -78.4723 H         1 UNK         0.0807 
    121 H121      -76.3401   25.7335  -79.1227 H         1 UNK         0.0807 
    122 H122      -79.2356   27.5507  -76.9285 H         1 UNK         0.2946 
    123 H123      -81.4855   26.4489  -76.5553 H         1 UNK         0.1144 
    124 H124      -82.6109   25.0914  -74.7953 H         1 UNK         0.0793 
    125 H125      -81.0847   24.3045  -74.3986 H         1 UNK         0.0793 
    126 H126      -81.8202   24.0590  -75.9753 H         1 UNK         0.0793 
    127 H127      -80.4846   26.6110  -73.7653 H         1 UNK         0.2896 
@<TRIPOS>BOND
     1    1    2 1    
     2    1   67 1    
     3    1   68 1    
     4    1   69 1    
     5    2    3 2    
     6    2    4 am   BACKBONE|DICT|INTERRES
     7    4    5 1    
     8    4   70 1    
     9    5    6 1    
    10    5   65 1    
    11    5   71 1    
    12    6    7 1    
    13    6   72 1    
    14    6   73 1    
    15    7    8 1    
    16    8    9 1    
    17    8   74 1    
    18    8   75 1    
    19    9   10 ar   
    20    9   14 ar   
    21   10   11 ar   
    22   10   76 1    
    23   11   12 ar   
    24   11   48 1    
    25   12   13 ar   
    26   12   77 1    
    27   13   14 ar   
    28   13   15 1    
    29   14   78 1    
    30   15   16 1    
    31   15   79 1    
    32   15   80 1    
    33   16   17 1    
    34   17   18 1    
    35   17   81 1    
    36   17   82 1    
    37   18   19 1    
    38   18   22 1    
    39   18   83 1    
    40   19   20 am   BACKBONE|DICT|INTERRES
    41   19   21 2    
    42   20   84 1    
    43   20   85 1    
    44   22   23 am   BACKBONE|DICT|INTERRES
    45   22   86 1    
    46   23   24 2    
    47   23   25 1    
    48   25   26 1    
    49   25   27 1    
    50   25   87 1    
    51   26   88 1    
    52   26   89 1    
    53   26   90 1    
    54   27   28 am   BACKBONE|DICT|INTERRES
    55   27   91 1    
    56   28   29 2    
    57   28   30 1    
    58   30   31 1    
    59   30   32 1    
    60   30   92 1    
    61   31   93 1    
    62   31   94 1    
    63   31   95 1    
    64   32   33 am   BACKBONE|DICT|INTERRES
    65   32   96 1    
    66   33   34 2    
    67   33   35 1    
    68   35   36 1    
    69   35   37 1    
    70   35   97 1    
    71   36   98 1    
    72   36   99 1    
    73   36  100 1    
    74   37   38 am   BACKBONE|DICT|INTERRES
    75   37  101 1    
    76   38   39 2    
    77   38   40 1    
    78   40   41 1    
    79   40   42 1    
    80   40  102 1    
    81   41  103 1    
    82   41  104 1    
    83   41  105 1    
    84   42   43 am   BACKBONE|DICT|INTERRES
    85   42  106 1    
    86   43   44 2    
    87   43   45 1    
    88   45   46 1    
    89   45   49 1    
    90   45  107 1    
    91   46   47 1    
    92   46  108 1    
    93   46  109 1    
    94   47   48 1    
    95   48  110 1    
    96   48  111 1    
    97   49   50 am   BACKBONE|DICT|INTERRES
    98   49  112 1    
    99   50   51 2    
   100   50   52 1    
   101   52   53 1    
   102   52   54 1    
   103   52  113 1    
   104   53  114 1    
   105   53  115 1    
   106   53  116 1    
   107   54   55 am   BACKBONE|DICT|INTERRES
   108   54  117 1    
   109   55   56 2    
   110   55   57 1    
   111   57   58 1    
   112   57   59 1    
   113   57  118 1    
   114   58  119 1    
   115   58  120 1    
   116   58  121 1    
   117   59   60 am   BACKBONE|DICT|INTERRES
   118   59  122 1    
   119   60   61 2    
   120   60   62 1    
   121   62   63 1    
   122   62   64 1    
   123   62  123 1    
   124   63  124 1    
   125   63  125 1    
   126   63  126 1    
   127   64   65 am   BACKBONE|DICT|INTERRES
   128   64  127 1    
   129   65   66 2    
@<TRIPOS>SUBSTRUCTURE
     1 UNK         1 GROUP             0       ****    0 ROOT    
