@<TRIPOS>MOLECULE
3R135
127   129    1
SMALL
USER_CHARGES


@<TRIPOS>ATOM
      1 CA        -80.8098   24.6976  -69.5451 C.3       0 UNK        -0.1998 
      2 C         -81.5592   25.5272  -70.5772 C.2       0 UNK         0.4909 
      3 O         -82.7754   25.6864  -70.4640 O.2       0 UNK        -0.5240 
      4 N         -80.8406   26.0491  -71.5763 N.am      1 UNK        -0.4739 
      5 CA        -81.3718   26.8282  -72.6982 C.3       1 UNK         0.0864 
      6 C6        -80.8639   28.2983  -72.6959 C.3       11 UNK        -0.0881 
      7 S7        -81.3502   29.1898  -71.1718 S.3       11 UNK        -0.2682 
      8 C8        -80.0440   30.4608  -70.9877 C.3       11 UNK         0.0289 
      9 C9        -78.6174   29.9561  -70.7488 C.ar      11 UNK        -0.0687 
     10 C10       -78.3159   28.6109  -70.5099 C.ar      11 UNK        -0.0823 
     11 C11       -76.9904   28.1752  -70.4281 C.ar      11 UNK        -0.0830 
     12 C12       -75.9532   29.1097  -70.4944 C.ar      11 UNK        -0.1021 
     13 C13       -76.2374   30.4669  -70.6622 C.ar      11 UNK        -0.0753 
     14 C14       -77.5678   30.8790  -70.7974 C.ar      11 UNK        -0.0933 
     15 C15       -75.1153   31.4947  -70.6779 C.3       11 UNK         0.0166 
     16 S16       -74.9957   32.3534  -72.2780 S.3       11 UNK        -0.2615 
     17 C17       -73.7073   31.4236  -73.1885 C.3       11 UNK        -0.0865 
     18 CA        -74.2096   30.5505  -74.3843 C.3       10 UNK         0.0862 
     19 C         -74.8313   31.3315  -75.5908 C.2       10 UNK         0.5551 
     20 N         -75.4054   32.5064  -75.3811 N.am      10 UNK        -0.7319 
     21 O         -74.8385   30.8571  -76.7257 O.2       10 UNK        -0.5018 
     22 N         -73.1821   29.5950  -74.8425 N.am      10 UNK        -0.4509 
     23 C         -72.0011   29.9323  -75.3861 C.2       10 UNK         0.4899 
     24 O         -71.5534   31.0801  -75.3763 O.2       10 UNK        -0.4839 
     25 CA        -71.2010   28.8421  -76.1251 C.3       9 UNK         0.0222 
     26 CB        -69.6739   29.0704  -76.0695 C.3       9 UNK        -0.1966 
     27 N         -71.5580   27.4638  -75.7760 N.am      9 UNK        -0.4218 
     28 C         -71.2702   26.7899  -74.6516 C.2       9 UNK         0.5020 
     29 O         -70.6752   27.2850  -73.6933 O.2       9 UNK        -0.5274 
     30 CA        -71.7067   25.3094  -74.5696 C.3       8 UNK         0.0270 
     31 CB        -72.4627   25.0256  -73.2590 C.3       8 UNK        -0.1976 
     32 N         -72.5312   24.8842  -75.7064 N.am      8 UNK        -0.4313 
     33 C         -72.0659   24.4707  -76.8937 C.2       8 UNK         0.5041 
     34 O         -70.8709   24.3020  -77.1371 O.2       8 UNK        -0.5577 
     35 CA        -73.1004   24.2577  -78.0167 C.3       7 UNK         0.0284 
     36 CB        -73.5276   22.7835  -78.0909 C.3       7 UNK        -0.1958 
     37 N         -74.2896   25.1072  -77.8813 N.am      7 UNK        -0.4454 
     38 C         -74.2839   26.4469  -77.9586 C.2       7 UNK         0.5089 
     39 O         -73.2808   27.1080  -78.2242 O.2       7 UNK        -0.5125 
     40 CA        -75.5915   27.1723  -77.5909 C.3       6 UNK         0.0408 
     41 CB        -76.5543   27.2038  -78.7857 C.3       6 UNK        -0.1791 
     42 N         -76.2411   26.5743  -76.4172 N.am      6 UNK        -0.4762 
     43 C         -75.6829   26.5581  -75.1961 C.2       6 UNK         0.5007 
     44 O         -74.6283   27.1344  -74.9336 O.2       6 UNK        -0.5032 
     45 CA        -76.3513   25.7246  -74.0897 C.3       5 UNK         0.0783 
     46 C46       -77.1856   26.6036  -73.1460 C.3       11 UNK        -0.0857 
     47 S47       -77.5693   25.7086  -71.5987 S.3       11 UNK        -0.2512 
     48 C48       -76.6764   26.6866  -70.3387 C.3       11 UNK         0.0225 
     49 N         -77.1173   24.6027  -74.6322 N.am      5 UNK        -0.4615 
     50 C         -76.5481   23.4612  -75.0361 C.2       4 UNK         0.5053 
     51 O         -75.3386   23.2408  -74.9719 O.2       4 UNK        -0.5105 
     52 CA        -77.4805   22.4099  -75.6551 C.3       4 UNK         0.0263 
     53 CB        -78.3058   21.7045  -74.5666 C.3       4 UNK        -0.1981 
     54 N         -78.3785   22.9822  -76.6601 N.am      4 UNK        -0.4224 
     55 C         -77.9803   23.5825  -77.7915 C.2       3 UNK         0.4895 
     56 O         -76.8025   23.6995  -78.1288 O.2       3 UNK        -0.5091 
     57 CA        -79.0763   24.1748  -78.6930 C.3       3 UNK         0.0250 
     58 CB        -79.4941   23.1551  -79.7643 C.3       3 UNK        -0.1996 
     59 N         -80.2638   24.6298  -77.9660 N.am      3 UNK        -0.4254 
     60 C         -80.2944   25.6108  -77.0516 C.2       2 UNK         0.5004 
     61 O         -79.2985   26.2557  -76.7117 O.2       2 UNK        -0.5226 
     62 CA        -81.6796   25.9263  -76.4421 C.3       2 UNK         0.0269 
     63 CB        -82.6149   24.6946  -76.3943 C.3       2 UNK        -0.1926 
     64 N         -81.6421   26.5539  -75.1134 N.am      2 UNK        -0.4687 
     65 C         -81.0384   26.0866  -74.0107 C.2       1 UNK         0.5165 
     66 O         -80.2887   25.1033  -73.9996 O.2       1 UNK        -0.5079 
     67 H67       -80.8907   25.1610  -68.5622 H         1 UNK         0.0900 
     68 H68       -79.7520   24.6006  -69.7875 H         1 UNK         0.0900 
     69 H69       -81.2358   23.6964  -69.4870 H         1 UNK         0.0900 
     70 H70       -79.8600   25.8095  -71.6630 H         1 UNK         0.2959 
     71 H71       -82.4622   26.8525  -72.6395 H         1 UNK         0.1079 
     72 H72       -79.7814   28.3323  -72.8157 H         1 UNK         0.0837 
     73 H73       -81.2751   28.8520  -73.5414 H         1 UNK         0.0837 
     74 H74       -80.0543   31.0864  -71.8816 H         1 UNK         0.0685 
     75 H75       -80.3208   31.1092  -70.1554 H         1 UNK         0.0685 
     76 H76       -79.1055   27.8781  -70.4455 H         1 UNK         0.1434 
     77 H77       -74.9252   28.7815  -70.4214 H         1 UNK         0.1329 
     78 H78       -77.7840   31.9272  -70.9553 H         1 UNK         0.1335 
     79 H79       -75.3197   32.2375  -69.9056 H         1 UNK         0.0680 
     80 H80       -74.1574   31.0448  -70.4136 H         1 UNK         0.0680 
     81 H81       -73.1698   30.7893  -72.4828 H         1 UNK         0.1032 
     82 H82       -72.9740   32.1518  -73.5369 H         1 UNK         0.1032 
     83 H83       -75.0194   29.9249  -74.0069 H         1 UNK         0.0461 
     84 H84       -75.8207   33.0048  -76.1520 H         1 UNK         0.3453 
     85 H85       -75.4342   32.8894  -74.4464 H         1 UNK         0.3453 
     86 H86       -73.5031   28.6332  -74.9264 H         1 UNK         0.2984 
     87 H87       -71.4917   28.9459  -77.1712 H         1 UNK         0.0554 
     88 H88       -69.1350   28.2940  -76.6124 H         1 UNK         0.0847 
     89 H89       -69.3021   29.0858  -75.0448 H         1 UNK         0.0847 
     90 H90       -69.4040   30.0249  -76.5230 H         1 UNK         0.0847 
     91 H91       -72.0946   26.9835  -76.4896 H         1 UNK         0.3141 
     92 H92       -70.7948   24.7088  -74.5619 H         1 UNK         0.0743 
     93 H93       -73.2821   25.7263  -73.1047 H         1 UNK         0.0784 
     94 H94       -72.8700   24.0144  -73.2387 H         1 UNK         0.0784 
     95 H95       -71.7965   25.1232  -72.4009 H         1 UNK         0.0784 
     96 H96       -73.5317   24.9782  -75.5968 H         1 UNK         0.3213 
     97 H97       -72.6147   24.5184  -78.9596 H         1 UNK         0.0855 
     98 H98       -74.0383   22.4639  -77.1823 H         1 UNK         0.0814 
     99 H99       -72.6629   22.1324  -78.2259 H         1 UNK         0.0814 
    100 H100      -74.2005   22.6077  -78.9305 H         1 UNK         0.0814 
    101 H101      -75.1762   24.6316  -77.7268 H         1 UNK         0.3105 
    102 H102      -75.3428   28.2042  -77.3350 H         1 UNK         0.0547 
    103 H103      -76.1455   27.8165  -79.5901 H         1 UNK         0.0837 
    104 H104      -76.7198   26.2094  -79.1966 H         1 UNK         0.0837 
    105 H105      -77.5211   27.6277  -78.5135 H         1 UNK         0.0837 
    106 H106      -77.1458   26.1365  -76.5542 H         1 UNK         0.3020 
    107 H107      -75.5324   25.3133  -73.4960 H         1 UNK         0.1245 
    108 H108      -76.6509   27.5267  -72.9183 H         1 UNK         0.0781 
    109 H109      -78.1150   26.9058  -73.6289 H         1 UNK         0.0781 
    110 H110      -76.9455   26.3224  -69.3465 H         1 UNK         0.0836 
    111 H111      -75.6064   26.5084  -70.4569 H         1 UNK         0.0836 
    112 H112      -78.1220   24.7198  -74.6974 H         1 UNK         0.3022 
    113 H113      -76.8563   21.6642  -76.1521 H         1 UNK         0.0747 
    114 H114      -78.9046   20.8952  -74.9845 H         1 UNK         0.0793 
    115 H115      -77.6559   21.2666  -73.8076 H         1 UNK         0.0793 
    116 H116      -78.9814   22.3944  -74.0582 H         1 UNK         0.0793 
    117 H117      -79.3671   22.9513  -76.4589 H         1 UNK         0.3047 
    118 H118      -78.6562   25.0428  -79.2013 H         1 UNK         0.0822 
    119 H119      -80.2023   23.5881  -80.4711 H         1 UNK         0.0807 
    120 H120      -79.9555   22.2702  -79.3239 H         1 UNK         0.0807 
    121 H121      -78.6304   22.8193  -80.3403 H         1 UNK         0.0807 
    122 H122      -81.1305   24.1617  -78.1882 H         1 UNK         0.2946 
    123 H123      -82.1316   26.6617  -77.1098 H         1 UNK         0.1144 
    124 H124      -82.8583   24.3284  -77.3921 H         1 UNK         0.0793 
    125 H125      -83.5640   24.9405  -75.9173 H         1 UNK         0.0793 
    126 H126      -82.1704   23.8707  -75.8341 H         1 UNK         0.0793 
    127 H127      -82.1969   27.3940  -75.0270 H         1 UNK         0.2896 
@<TRIPOS>BOND
     1    1    2 1    
     2    1   67 1    
     3    1   68 1    
     4    1   69 1    
     5    2    3 2    
     6    2    4 am   BACKBONE|DICT|INTERRES
     7    4    5 1    
     8    4   70 1    
     9    5    6 1    
    10    5   65 1    
    11    5   71 1    
    12    6    7 1    
    13    6   72 1    
    14    6   73 1    
    15    7    8 1    
    16    8    9 1    
    17    8   74 1    
    18    8   75 1    
    19    9   10 ar   
    20    9   14 ar   
    21   10   11 ar   
    22   10   76 1    
    23   11   12 ar   
    24   11   48 1    
    25   12   13 ar   
    26   12   77 1    
    27   13   14 ar   
    28   13   15 1    
    29   14   78 1    
    30   15   16 1    
    31   15   79 1    
    32   15   80 1    
    33   16   17 1    
    34   17   18 1    
    35   17   81 1    
    36   17   82 1    
    37   18   19 1    
    38   18   22 1    
    39   18   83 1    
    40   19   20 am   BACKBONE|DICT|INTERRES
    41   19   21 2    
    42   20   84 1    
    43   20   85 1    
    44   22   23 am   BACKBONE|DICT|INTERRES
    45   22   86 1    
    46   23   24 2    
    47   23   25 1    
    48   25   26 1    
    49   25   27 1    
    50   25   87 1    
    51   26   88 1    
    52   26   89 1    
    53   26   90 1    
    54   27   28 am   BACKBONE|DICT|INTERRES
    55   27   91 1    
    56   28   29 2    
    57   28   30 1    
    58   30   31 1    
    59   30   32 1    
    60   30   92 1    
    61   31   93 1    
    62   31   94 1    
    63   31   95 1    
    64   32   33 am   BACKBONE|DICT|INTERRES
    65   32   96 1    
    66   33   34 2    
    67   33   35 1    
    68   35   36 1    
    69   35   37 1    
    70   35   97 1    
    71   36   98 1    
    72   36   99 1    
    73   36  100 1    
    74   37   38 am   BACKBONE|DICT|INTERRES
    75   37  101 1    
    76   38   39 2    
    77   38   40 1    
    78   40   41 1    
    79   40   42 1    
    80   40  102 1    
    81   41  103 1    
    82   41  104 1    
    83   41  105 1    
    84   42   43 am   BACKBONE|DICT|INTERRES
    85   42  106 1    
    86   43   44 2    
    87   43   45 1    
    88   45   46 1    
    89   45   49 1    
    90   45  107 1    
    91   46   47 1    
    92   46  108 1    
    93   46  109 1    
    94   47   48 1    
    95   48  110 1    
    96   48  111 1    
    97   49   50 am   BACKBONE|DICT|INTERRES
    98   49  112 1    
    99   50   51 2    
   100   50   52 1    
   101   52   53 1    
   102   52   54 1    
   103   52  113 1    
   104   53  114 1    
   105   53  115 1    
   106   53  116 1    
   107   54   55 am   BACKBONE|DICT|INTERRES
   108   54  117 1    
   109   55   56 2    
   110   55   57 1    
   111   57   58 1    
   112   57   59 1    
   113   57  118 1    
   114   58  119 1    
   115   58  120 1    
   116   58  121 1    
   117   59   60 am   BACKBONE|DICT|INTERRES
   118   59  122 1    
   119   60   61 2    
   120   60   62 1    
   121   62   63 1    
   122   62   64 1    
   123   62  123 1    
   124   63  124 1    
   125   63  125 1    
   126   63  126 1    
   127   64   65 am   BACKBONE|DICT|INTERRES
   128   64  127 1    
   129   65   66 2    
@<TRIPOS>SUBSTRUCTURE
     1 UNK         1 GROUP             0       ****    0 ROOT    
