@<TRIPOS>MOLECULE
3R135
127   129    1
SMALL
USER_CHARGES


@<TRIPOS>ATOM
      1 CA        -83.8518   24.2208  -74.7207 C.3       0 UNK        -0.1998 
      2 C         -82.9563   25.3109  -75.2881 C.2       0 UNK         0.4909 
      3 O         -82.7511   25.3615  -76.5015 O.2       0 UNK        -0.5240 
      4 N         -82.4143   26.1752  -74.4188 N.am      1 UNK        -0.4739 
      5 CA        -81.4795   27.2598  -74.7422 C.3       1 UNK         0.0864 
      6 C6        -81.1586   28.1613  -73.5166 C.3       11 UNK        -0.0881 
      7 S7        -80.8796   27.2587  -71.9519 S.3       11 UNK        -0.2682 
      8 C8        -80.3028   28.5951  -70.8596 C.3       11 UNK         0.0289 
      9 C9        -78.7908   28.7595  -70.9116 C.ar      11 UNK        -0.0687 
     10 C10       -77.9699   27.7679  -70.3688 C.ar      11 UNK        -0.0823 
     11 C11       -76.5797   27.9042  -70.3881 C.ar      11 UNK        -0.0830 
     12 C12       -76.0133   29.0650  -70.9202 C.ar      11 UNK        -0.1021 
     13 C13       -76.8199   30.0711  -71.4653 C.ar      11 UNK        -0.0753 
     14 C14       -78.2105   29.9057  -71.4639 C.ar      11 UNK        -0.0933 
     15 C15       -76.2090   31.3555  -72.0206 C.3       11 UNK         0.0166 
     16 S16       -74.9258   31.0586  -73.2830 S.3       11 UNK        -0.2615 
     17 C17       -73.3987   30.9604  -72.2806 C.3       11 UNK        -0.0865 
     18 CA        -72.2084   31.7209  -72.9363 C.3       10 UNK         0.0862 
     19 C         -70.9770   31.8503  -71.9873 C.2       10 UNK         0.5551 
     20 N         -69.7505   31.8545  -72.4965 N.am      10 UNK        -0.7319 
     21 O         -71.1325   31.9852  -70.7756 O.2       10 UNK        -0.5018 
     22 N         -71.8992   31.2253  -74.2919 N.am      10 UNK        -0.4509 
     23 C         -71.4926   29.9871  -74.6003 C.2       10 UNK         0.4899 
     24 O         -71.2411   29.1162  -73.7654 O.2       10 UNK        -0.4839 
     25 CA        -71.3629   29.6929  -76.1033 C.3       9 UNK         0.0222 
     26 CB        -70.0398   30.2314  -76.6858 C.3       9 UNK        -0.1966 
     27 N         -71.5846   28.2737  -76.4050 N.am      9 UNK        -0.4218 
     28 C         -70.7630   27.2232  -76.2354 C.2       9 UNK         0.5020 
     29 O         -69.5806   27.3139  -75.9012 O.2       9 UNK        -0.5274 
     30 CA        -71.3494   25.8131  -76.4692 C.3       8 UNK         0.0270 
     31 CB        -71.2673   24.9714  -75.1838 C.3       8 UNK        -0.1976 
     32 N         -72.7391   25.8256  -76.9349 N.am      8 UNK        -0.4313 
     33 C         -73.1219   26.1053  -78.1901 C.2       8 UNK         0.5041 
     34 O         -72.3316   26.2733  -79.1194 O.2       8 UNK        -0.5577 
     35 CA        -74.6316   26.2704  -78.4540 C.3       7 UNK         0.0284 
     36 CB        -75.1963   25.0161  -79.1380 C.3       7 UNK        -0.1958 
     37 N         -75.4088   26.5768  -77.2457 N.am      7 UNK        -0.4454 
     38 C         -75.2781   27.7039  -76.5278 C.2       7 UNK         0.5089 
     39 O         -74.5532   28.6364  -76.8744 O.2       7 UNK        -0.5125 
     40 CA        -76.0099   27.8008  -75.1737 C.3       6 UNK         0.0408 
     41 CB        -77.1309   28.8527  -75.2113 C.3       6 UNK        -0.1791 
     42 N         -76.5187   26.5406  -74.6108 N.am      6 UNK        -0.4762 
     43 C         -75.7382   25.5117  -74.2432 C.2       6 UNK         0.5007 
     44 O         -74.5666   25.3896  -74.6065 O.2       6 UNK        -0.5032 
     45 CA        -76.3424   24.4555  -73.2993 C.3       5 UNK         0.0783 
     46 C46       -76.4251   24.9254  -71.8173 C.3       11 UNK        -0.0857 
     47 S47       -74.9527   25.7689  -71.1328 S.3       11 UNK        -0.2512 
     48 C48       -75.6907   26.8034  -69.8238 C.3       11 UNK         0.0225 
     49 N         -77.6539   24.0013  -73.7682 N.am      5 UNK        -0.4615 
     50 C         -78.1999   22.8380  -73.3897 C.2       4 UNK         0.5053 
     51 O         -77.5939   21.9739  -72.7555 O.2       4 UNK        -0.5105 
     52 CA        -79.6754   22.6012  -73.7386 C.3       4 UNK         0.0263 
     53 CB        -80.5876   23.3699  -72.7691 C.3       4 UNK        -0.1981 
     54 N         -79.9809   22.9897  -75.1125 N.am      4 UNK        -0.4224 
     55 C         -79.8780   22.1710  -76.1679 C.2       3 UNK         0.4895 
     56 O         -79.5424   20.9890  -76.0881 O.2       3 UNK        -0.5091 
     57 CA        -80.2188   22.7549  -77.5507 C.3       3 UNK         0.0250 
     58 CB        -81.6338   22.3343  -77.9799 C.3       3 UNK        -0.1996 
     59 N         -80.1114   24.2143  -77.6055 N.am      3 UNK        -0.4254 
     60 C         -78.9477   24.8786  -77.5938 C.2       2 UNK         0.5004 
     61 O         -77.8463   24.3367  -77.5305 O.2       2 UNK        -0.5226 
     62 CA        -79.0253   26.4114  -77.5893 C.3       2 UNK         0.0269 
     63 CB        -79.1758   26.9580  -79.0166 C.3       2 UNK        -0.1926 
     64 N         -80.0962   26.9367  -76.7393 N.am      2 UNK        -0.4687 
     65 C         -80.2086   26.7142  -75.4219 C.2       1 UNK         0.5165 
     66 O         -79.3859   26.0673  -74.7683 O.2       1 UNK        -0.5079 
     67 H67       -83.4218   23.2401  -74.9224 H         1 UNK         0.0900 
     68 H68       -83.9823   24.3202  -73.6433 H         1 UNK         0.0900 
     69 H69       -84.8357   24.2642  -75.1867 H         1 UNK         0.0900 
     70 H70       -82.5946   26.0654  -73.4304 H         1 UNK         0.2959 
     71 H71       -81.9867   27.8951  -75.4717 H         1 UNK         0.1079 
     72 H72       -80.3003   28.8063  -73.7171 H         1 UNK         0.0837 
     73 H73       -81.9977   28.8383  -73.3483 H         1 UNK         0.0837 
     74 H74       -80.5953   28.3574  -69.8358 H         1 UNK         0.0685 
     75 H75       -80.8114   29.5271  -71.1113 H         1 UNK         0.0685 
     76 H76       -78.4196   26.8812  -69.9428 H         1 UNK         0.1434 
     77 H77       -74.9400   29.1753  -70.9106 H         1 UNK         0.1329 
     78 H78       -78.8448   30.6789  -71.8752 H         1 UNK         0.1335 
     79 H79       -76.9848   31.9665  -72.4842 H         1 UNK         0.0680 
     80 H80       -75.8098   31.9536  -71.2009 H         1 UNK         0.0680 
     81 H81       -73.1425   29.9114  -72.1290 H         1 UNK         0.1032 
     82 H82       -73.6020   31.3642  -71.2878 H         1 UNK         0.1032 
     83 H83       -72.5358   32.7508  -73.0812 H         1 UNK         0.0461 
     84 H84       -68.9587   31.9496  -71.8807 H         1 UNK         0.3453 
     85 H85       -69.6111   31.7492  -73.4888 H         1 UNK         0.3453 
     86 H86       -72.0688   31.8815  -75.0403 H         1 UNK         0.2984 
     87 H87       -72.1789   30.2147  -76.6061 H         1 UNK         0.0554 
     88 H88       -70.0021   31.3194  -76.6234 H         1 UNK         0.0847 
     89 H89       -69.9291   29.9643  -77.7367 H         1 UNK         0.0847 
     90 H90       -69.1704   29.8520  -76.1482 H         1 UNK         0.0847 
     91 H91       -72.5423   28.0671  -76.6652 H         1 UNK         0.3141 
     92 H92       -70.7334   25.3292  -77.2300 H         1 UNK         0.0743 
     93 H93       -70.2343   24.8642  -74.8505 H         1 UNK         0.0784 
     94 H94       -71.8260   25.4307  -74.3671 H         1 UNK         0.0784 
     95 H95       -71.6628   23.9674  -75.3383 H         1 UNK         0.0784 
     96 H96       -73.4517   25.6912  -76.2208 H         1 UNK         0.3213 
     97 H97       -74.7442   27.1103  -79.1431 H         1 UNK         0.0855 
     98 H98       -75.1922   24.1541  -78.4698 H         1 UNK         0.0814 
     99 H99       -74.6086   24.7500  -80.0177 H         1 UNK         0.0814 
    100 H100      -76.2192   25.1770  -79.4768 H         1 UNK         0.0814 
    101 H101      -75.9956   25.8369  -76.8824 H         1 UNK         0.3105 
    102 H102      -75.2643   28.1636  -74.4626 H         1 UNK         0.0547 
    103 H103      -77.9169   28.6056  -75.9204 H         1 UNK         0.0837 
    104 H104      -76.7348   29.8261  -75.5034 H         1 UNK         0.0837 
    105 H105      -77.5884   28.9773  -74.2300 H         1 UNK         0.0837 
    106 H106      -77.4944   26.5375  -74.3325 H         1 UNK         0.3020 
    107 H107      -75.6565   23.6058  -73.3386 H         1 UNK         0.1245 
    108 H108      -76.6415   24.0738  -71.1715 H         1 UNK         0.0781 
    109 H109      -77.2825   25.5885  -71.7195 H         1 UNK         0.0781 
    110 H110      -74.8884   27.2520  -69.2362 H         1 UNK         0.0836 
    111 H111      -76.2507   26.1682  -69.1356 H         1 UNK         0.0836 
    112 H112      -78.2196   24.6742  -74.2781 H         1 UNK         0.3022 
    113 H113      -79.8815   21.5363  -73.6084 H         1 UNK         0.0747 
    114 H114      -80.4544   24.4479  -72.8558 H         1 UNK         0.0793 
    115 H115      -81.6380   23.1440  -72.9496 H         1 UNK         0.0793 
    116 H116      -80.3731   23.0994  -71.7343 H         1 UNK         0.0793 
    117 H117      -80.2092   23.9605  -75.2729 H         1 UNK         0.3047 
    118 H118      -79.5075   22.3343  -78.2650 H         1 UNK         0.0822 
    119 H119      -81.8657   22.6883  -78.9846 H         1 UNK         0.0807 
    120 H120      -82.3950   22.7235  -77.3034 H         1 UNK         0.0807 
    121 H121      -81.7322   21.2479  -77.9897 H         1 UNK         0.0807 
    122 H122      -80.9784   24.7403  -77.5859 H         1 UNK         0.2946 
    123 H123      -78.0808   26.7712  -77.1906 H         1 UNK         0.1144 
    124 H124      -79.1267   28.0468  -79.0311 H         1 UNK         0.0793 
    125 H125      -80.1219   26.6574  -79.4680 H         1 UNK         0.0793 
    126 H126      -78.3756   26.5919  -79.6615 H         1 UNK         0.0793 
    127 H127      -80.8380   27.4353  -77.2104 H         1 UNK         0.2896 
@<TRIPOS>BOND
     1    1    2 1    
     2    1   67 1    
     3    1   68 1    
     4    1   69 1    
     5    2    3 2    
     6    2    4 am   BACKBONE|DICT|INTERRES
     7    4    5 1    
     8    4   70 1    
     9    5    6 1    
    10    5   65 1    
    11    5   71 1    
    12    6    7 1    
    13    6   72 1    
    14    6   73 1    
    15    7    8 1    
    16    8    9 1    
    17    8   74 1    
    18    8   75 1    
    19    9   10 ar   
    20    9   14 ar   
    21   10   11 ar   
    22   10   76 1    
    23   11   12 ar   
    24   11   48 1    
    25   12   13 ar   
    26   12   77 1    
    27   13   14 ar   
    28   13   15 1    
    29   14   78 1    
    30   15   16 1    
    31   15   79 1    
    32   15   80 1    
    33   16   17 1    
    34   17   18 1    
    35   17   81 1    
    36   17   82 1    
    37   18   19 1    
    38   18   22 1    
    39   18   83 1    
    40   19   20 am   BACKBONE|DICT|INTERRES
    41   19   21 2    
    42   20   84 1    
    43   20   85 1    
    44   22   23 am   BACKBONE|DICT|INTERRES
    45   22   86 1    
    46   23   24 2    
    47   23   25 1    
    48   25   26 1    
    49   25   27 1    
    50   25   87 1    
    51   26   88 1    
    52   26   89 1    
    53   26   90 1    
    54   27   28 am   BACKBONE|DICT|INTERRES
    55   27   91 1    
    56   28   29 2    
    57   28   30 1    
    58   30   31 1    
    59   30   32 1    
    60   30   92 1    
    61   31   93 1    
    62   31   94 1    
    63   31   95 1    
    64   32   33 am   BACKBONE|DICT|INTERRES
    65   32   96 1    
    66   33   34 2    
    67   33   35 1    
    68   35   36 1    
    69   35   37 1    
    70   35   97 1    
    71   36   98 1    
    72   36   99 1    
    73   36  100 1    
    74   37   38 am   BACKBONE|DICT|INTERRES
    75   37  101 1    
    76   38   39 2    
    77   38   40 1    
    78   40   41 1    
    79   40   42 1    
    80   40  102 1    
    81   41  103 1    
    82   41  104 1    
    83   41  105 1    
    84   42   43 am   BACKBONE|DICT|INTERRES
    85   42  106 1    
    86   43   44 2    
    87   43   45 1    
    88   45   46 1    
    89   45   49 1    
    90   45  107 1    
    91   46   47 1    
    92   46  108 1    
    93   46  109 1    
    94   47   48 1    
    95   48  110 1    
    96   48  111 1    
    97   49   50 am   BACKBONE|DICT|INTERRES
    98   49  112 1    
    99   50   51 2    
   100   50   52 1    
   101   52   53 1    
   102   52   54 1    
   103   52  113 1    
   104   53  114 1    
   105   53  115 1    
   106   53  116 1    
   107   54   55 am   BACKBONE|DICT|INTERRES
   108   54  117 1    
   109   55   56 2    
   110   55   57 1    
   111   57   58 1    
   112   57   59 1    
   113   57  118 1    
   114   58  119 1    
   115   58  120 1    
   116   58  121 1    
   117   59   60 am   BACKBONE|DICT|INTERRES
   118   59  122 1    
   119   60   61 2    
   120   60   62 1    
   121   62   63 1    
   122   62   64 1    
   123   62  123 1    
   124   63  124 1    
   125   63  125 1    
   126   63  126 1    
   127   64   65 am   BACKBONE|DICT|INTERRES
   128   64  127 1    
   129   65   66 2    
@<TRIPOS>SUBSTRUCTURE
     1 UNK         1 GROUP             0       ****    0 ROOT    
