@<TRIPOS>MOLECULE
3R135
127   129    1
SMALL
USER_CHARGES


@<TRIPOS>ATOM
      1 CA        -80.8125   31.0622  -77.7723 C.3       0 UNK        -0.1998 
      2 C         -79.9010   29.8481  -77.6813 C.2       0 UNK         0.4909 
      3 O         -79.3500   29.4174  -78.6943 O.2       0 UNK        -0.5240 
      4 N         -79.7302   29.2974  -76.4728 N.am      1 UNK        -0.4739 
      5 CA        -78.9069   28.1118  -76.2075 C.3       1 UNK         0.0864 
      6 C6        -78.5062   28.0112  -74.7131 C.3       11 UNK        -0.0881 
      7 S7        -79.9356   27.9523  -73.5727 S.3       11 UNK        -0.2682 
      8 C8        -79.3584   28.9898  -72.1869 C.3       11 UNK         0.0289 
      9 C9        -78.1299   28.4366  -71.4676 C.ar      11 UNK        -0.0687 
     10 C10       -77.9880   27.0663  -71.2159 C.ar      11 UNK        -0.0823 
     11 C11       -76.8541   26.5712  -70.5654 C.ar      11 UNK        -0.0830 
     12 C12       -75.8780   27.4656  -70.1192 C.ar      11 UNK        -0.1021 
     13 C13       -76.0061   28.8351  -70.3590 C.ar      11 UNK        -0.0753 
     14 C14       -77.1330   29.3153  -71.0321 C.ar      11 UNK        -0.0933 
     15 C15       -74.9112   29.7896  -69.9104 C.3       11 UNK         0.0166 
     16 S16       -73.8671   30.3119  -71.3054 S.3       11 UNK        -0.2615 
     17 C17       -73.2553   28.7092  -71.9379 C.3       11 UNK        -0.0865 
     18 CA        -71.9723   28.8681  -72.7939 C.3       10 UNK         0.0862 
     19 C         -71.3943   27.4902  -73.2156 C.2       10 UNK         0.5551 
     20 N         -70.8819   26.7212  -72.2643 N.am      10 UNK        -0.7319 
     21 O         -71.4032   27.1053  -74.3833 O.2       10 UNK        -0.5018 
     22 N         -72.2299   29.7210  -73.9603 N.am      10 UNK        -0.4509 
     23 C         -71.4906   30.7701  -74.3405 C.2       10 UNK         0.4899 
     24 O         -70.4730   31.1415  -73.7545 O.2       10 UNK        -0.4839 
     25 CA        -71.9518   31.5499  -75.5890 C.3       9 UNK         0.0222 
     26 CB        -71.0007   31.2846  -76.7683 C.3       9 UNK        -0.1966 
     27 N         -73.3199   31.2300  -76.0031 N.am      9 UNK        -0.4218 
     28 C         -74.4383   31.5918  -75.3565 C.2       9 UNK         0.5020 
     29 O         -74.4544   32.3665  -74.4000 O.2       9 UNK        -0.5274 
     30 CA        -75.7629   30.9778  -75.8522 C.3       8 UNK         0.0270 
     31 CB        -76.6366   32.0429  -76.5353 C.3       8 UNK        -0.1976 
     32 N         -75.5724   29.8491  -76.7722 N.am      8 UNK        -0.4313 
     33 C         -75.1588   28.6283  -76.4079 C.2       8 UNK         0.5041 
     34 O         -74.9360   28.2911  -75.2437 O.2       8 UNK        -0.5577 
     35 CA        -74.8976   27.6404  -77.5446 C.3       7 UNK         0.0284 
     36 CB        -73.4127   27.6753  -77.9543 C.3       7 UNK        -0.1958 
     37 N         -75.2683   26.2979  -77.1094 N.am      7 UNK        -0.4454 
     38 C         -75.5701   25.2876  -77.9330 C.2       7 UNK         0.5089 
     39 O         -75.5633   25.4029  -79.1603 O.2       7 UNK        -0.5125 
     40 CA        -75.9666   23.9251  -77.3268 C.3       6 UNK         0.0408 
     41 CB        -75.1850   22.7657  -77.9793 C.3       6 UNK        -0.1791 
     42 N         -75.9160   23.8148  -75.8624 N.am      6 UNK        -0.4762 
     43 C         -74.8415   23.8747  -75.0586 C.2       6 UNK         0.5007 
     44 O         -73.7110   24.1588  -75.4520 O.2       6 UNK        -0.5032 
     45 CA        -75.0523   23.5426  -73.5640 C.3       5 UNK         0.0783 
     46 C46       -75.1010   24.8331  -72.7123 C.3       11 UNK        -0.0857 
     47 S47       -75.0612   24.4598  -70.9249 S.3       11 UNK        -0.2512 
     48 C48       -76.6837   25.0714  -70.3529 C.3       11 UNK         0.0225 
     49 N         -76.2280   22.6929  -73.3372 N.am      5 UNK        -0.4615 
     50 C         -76.3158   21.3992  -73.6750 C.2       4 UNK         0.5053 
     51 O         -75.3789   20.7520  -74.1431 O.2       4 UNK        -0.5105 
     52 CA        -77.6801   20.7073  -73.4742 C.3       4 UNK         0.0263 
     53 CB        -77.6731   19.8874  -72.1737 C.3       4 UNK        -0.1981 
     54 N         -78.8420   21.6088  -73.4669 N.am      4 UNK        -0.4224 
     55 C         -79.1947   22.4297  -74.4664 C.2       3 UNK         0.4895 
     56 O         -78.5525   22.5446  -75.5132 O.2       3 UNK        -0.5091 
     57 CA        -80.4399   23.2974  -74.2391 C.3       3 UNK         0.0250 
     58 CB        -80.2634   24.2187  -73.0161 C.3       3 UNK        -0.1996 
     59 N         -80.6524   24.1144  -75.4287 N.am      3 UNK        -0.4254 
     60 C         -81.7948   24.6770  -75.8285 C.2       2 UNK         0.5004 
     61 O         -82.8689   24.5426  -75.2389 O.2       2 UNK        -0.5226 
     62 CA        -81.6948   25.5772  -77.0770 C.3       2 UNK         0.0269 
     63 CB        -83.0726   26.0230  -77.6014 C.3       2 UNK        -0.1926 
     64 N         -80.8903   26.7683  -76.7912 N.am      2 UNK        -0.4687 
     65 C         -79.5522   26.8004  -76.7021 C.2       1 UNK         0.5165 
     66 O         -78.8329   25.8359  -76.9647 O.2       1 UNK        -0.5079 
     67 H67       -81.2223   31.3385  -76.8009 H         1 UNK         0.0900 
     68 H68       -80.2602   31.9168  -78.1624 H         1 UNK         0.0900 
     69 H69       -81.6442   30.8571  -78.4458 H         1 UNK         0.0900 
     70 H70       -80.2041   29.6848  -75.6685 H         1 UNK         0.2959 
     71 H71       -77.9889   28.2185  -76.7864 H         1 UNK         0.1079 
     72 H72       -77.8800   28.8652  -74.4523 H         1 UNK         0.0837 
     73 H73       -77.8814   27.1331  -74.5367 H         1 UNK         0.0837 
     74 H74       -80.1687   29.0848  -71.4632 H         1 UNK         0.0685 
     75 H75       -79.1625   29.9941  -72.5658 H         1 UNK         0.0685 
     76 H76       -78.7601   26.3833  -71.5369 H         1 UNK         0.1434 
     77 H77       -75.0026   27.0895  -69.6077 H         1 UNK         0.1329 
     78 H78       -77.2262   30.3760  -71.2213 H         1 UNK         0.1335 
     79 H79       -74.2851   29.3305  -69.1437 H         1 UNK         0.0680 
     80 H80       -75.3599   30.6722  -69.4522 H         1 UNK         0.0680 
     81 H81       -73.0682   28.0527  -71.0866 H         1 UNK         0.1032 
     82 H82       -74.0502   28.2376  -72.5203 H         1 UNK         0.1032 
     83 H83       -71.2130   29.3383  -72.1662 H         1 UNK         0.0461 
     84 H84       -70.8495   27.0248  -71.3038 H         1 UNK         0.3453 
     85 H85       -70.5018   25.8227  -72.5173 H         1 UNK         0.3453 
     86 H86       -73.0291   29.4495  -74.5176 H         1 UNK         0.2984 
     87 H87       -71.9088   32.6135  -75.3454 H         1 UNK         0.0554 
     88 H88       -69.9753   31.5537  -76.5105 H         1 UNK         0.0847 
     89 H89       -71.2760   31.8736  -77.6433 H         1 UNK         0.0847 
     90 H90       -70.9967   30.2324  -77.0564 H         1 UNK         0.0847 
     91 H91       -73.4165   30.6135  -76.7949 H         1 UNK         0.3141 
     92 H92       -76.2943   30.6158  -74.9696 H         1 UNK         0.0743 
     93 H93       -76.1609   32.4436  -77.4312 H         1 UNK         0.0784 
     94 H94       -77.6065   31.6371  -76.8209 H         1 UNK         0.0784 
     95 H95       -76.8254   32.8819  -75.8640 H         1 UNK         0.0784 
     96 H96       -75.7306   30.0404  -77.7524 H         1 UNK         0.3213 
     97 H97       -75.5180   27.9184  -78.3999 H         1 UNK         0.0855 
     98 H98       -72.7619   27.4010  -77.1220 H         1 UNK         0.0814 
     99 H99       -73.1171   28.6701  -78.2889 H         1 UNK         0.0814 
    100 H100      -73.2086   26.9883  -78.7756 H         1 UNK         0.0814 
    101 H101      -75.2854   26.1557  -76.1079 H         1 UNK         0.3105 
    102 H102      -77.0175   23.7889  -77.5855 H         1 UNK         0.0547 
    103 H103      -75.5065   21.8011  -77.5863 H         1 UNK         0.0837 
    104 H104      -74.1114   22.8564  -77.8121 H         1 UNK         0.0837 
    105 H105      -75.3434   22.7420  -79.0581 H         1 UNK         0.0837 
    106 H106      -76.8013   23.5396  -75.4482 H         1 UNK         0.3020 
    107 H107      -74.1715   22.9732  -73.2569 H         1 UNK         0.1245 
    108 H108      -75.9828   25.4271  -72.9592 H         1 UNK         0.0781 
    109 H109      -74.2398   25.4693  -72.9279 H         1 UNK         0.0781 
    110 H110      -76.7868   24.8538  -69.2891 H         1 UNK         0.0836 
    111 H111      -77.4709   24.5116  -70.8597 H         1 UNK         0.0836 
    112 H112      -77.0353   23.1382  -72.9305 H         1 UNK         0.3022 
    113 H113      -77.8118   20.0186  -74.3114 H         1 UNK         0.0747 
    114 H114      -78.5870   19.3029  -72.0661 H         1 UNK         0.0793 
    115 H115      -76.8392   19.1839  -72.1594 H         1 UNK         0.0793 
    116 H116      -77.5750   20.5259  -71.2947 H         1 UNK         0.0793 
    117 H117      -79.4243   21.5771  -72.6421 H         1 UNK         0.3047 
    118 H118      -81.2978   22.6378  -74.0933 H         1 UNK         0.0822 
    119 H119      -81.1247   24.8738  -72.8829 H         1 UNK         0.0807 
    120 H120      -79.3824   24.8508  -73.1277 H         1 UNK         0.0807 
    121 H121      -80.1508   23.6506  -72.0924 H         1 UNK         0.0807 
    122 H122      -79.8163   24.2636  -75.9877 H         1 UNK         0.2946 
    123 H123      -81.2071   24.9967  -77.8638 H         1 UNK         0.1144 
    124 H124      -82.9773   26.6128  -78.5133 H         1 UNK         0.0793 
    125 H125      -83.6108   26.6243  -76.8676 H         1 UNK         0.0793 
    126 H126      -83.6970   25.1605  -77.8383 H         1 UNK         0.0793 
    127 H127      -81.3956   27.5996  -76.5211 H         1 UNK         0.2896 
@<TRIPOS>BOND
     1    1    2 1    
     2    1   67 1    
     3    1   68 1    
     4    1   69 1    
     5    2    3 2    
     6    2    4 am   BACKBONE|DICT|INTERRES
     7    4    5 1    
     8    4   70 1    
     9    5    6 1    
    10    5   65 1    
    11    5   71 1    
    12    6    7 1    
    13    6   72 1    
    14    6   73 1    
    15    7    8 1    
    16    8    9 1    
    17    8   74 1    
    18    8   75 1    
    19    9   10 ar   
    20    9   14 ar   
    21   10   11 ar   
    22   10   76 1    
    23   11   12 ar   
    24   11   48 1    
    25   12   13 ar   
    26   12   77 1    
    27   13   14 ar   
    28   13   15 1    
    29   14   78 1    
    30   15   16 1    
    31   15   79 1    
    32   15   80 1    
    33   16   17 1    
    34   17   18 1    
    35   17   81 1    
    36   17   82 1    
    37   18   19 1    
    38   18   22 1    
    39   18   83 1    
    40   19   20 am   BACKBONE|DICT|INTERRES
    41   19   21 2    
    42   20   84 1    
    43   20   85 1    
    44   22   23 am   BACKBONE|DICT|INTERRES
    45   22   86 1    
    46   23   24 2    
    47   23   25 1    
    48   25   26 1    
    49   25   27 1    
    50   25   87 1    
    51   26   88 1    
    52   26   89 1    
    53   26   90 1    
    54   27   28 am   BACKBONE|DICT|INTERRES
    55   27   91 1    
    56   28   29 2    
    57   28   30 1    
    58   30   31 1    
    59   30   32 1    
    60   30   92 1    
    61   31   93 1    
    62   31   94 1    
    63   31   95 1    
    64   32   33 am   BACKBONE|DICT|INTERRES
    65   32   96 1    
    66   33   34 2    
    67   33   35 1    
    68   35   36 1    
    69   35   37 1    
    70   35   97 1    
    71   36   98 1    
    72   36   99 1    
    73   36  100 1    
    74   37   38 am   BACKBONE|DICT|INTERRES
    75   37  101 1    
    76   38   39 2    
    77   38   40 1    
    78   40   41 1    
    79   40   42 1    
    80   40  102 1    
    81   41  103 1    
    82   41  104 1    
    83   41  105 1    
    84   42   43 am   BACKBONE|DICT|INTERRES
    85   42  106 1    
    86   43   44 2    
    87   43   45 1    
    88   45   46 1    
    89   45   49 1    
    90   45  107 1    
    91   46   47 1    
    92   46  108 1    
    93   46  109 1    
    94   47   48 1    
    95   48  110 1    
    96   48  111 1    
    97   49   50 am   BACKBONE|DICT|INTERRES
    98   49  112 1    
    99   50   51 2    
   100   50   52 1    
   101   52   53 1    
   102   52   54 1    
   103   52  113 1    
   104   53  114 1    
   105   53  115 1    
   106   53  116 1    
   107   54   55 am   BACKBONE|DICT|INTERRES
   108   54  117 1    
   109   55   56 2    
   110   55   57 1    
   111   57   58 1    
   112   57   59 1    
   113   57  118 1    
   114   58  119 1    
   115   58  120 1    
   116   58  121 1    
   117   59   60 am   BACKBONE|DICT|INTERRES
   118   59  122 1    
   119   60   61 2    
   120   60   62 1    
   121   62   63 1    
   122   62   64 1    
   123   62  123 1    
   124   63  124 1    
   125   63  125 1    
   126   63  126 1    
   127   64   65 am   BACKBONE|DICT|INTERRES
   128   64  127 1    
   129   65   66 2    
@<TRIPOS>SUBSTRUCTURE
     1 UNK         1 GROUP             0       ****    0 ROOT    
