@<TRIPOS>MOLECULE
3R135
127   129    1
SMALL
USER_CHARGES


@<TRIPOS>ATOM
      1 CA        -85.2874   25.7891  -71.1887 C.3       0 UNK        -0.1998 
      2 C         -84.1717   26.5505  -71.8888 C.2       0 UNK         0.4909 
      3 O         -84.4146   27.6306  -72.4275 O.2       0 UNK        -0.5240 
      4 N         -82.9515   25.9975  -71.8765 N.am      1 UNK        -0.4739 
      5 CA        -81.7567   26.5638  -72.5151 C.3       1 UNK         0.0864 
      6 C6        -80.4774   25.7959  -72.0964 C.3       11 UNK        -0.0881 
      7 S7        -79.9481   26.2396  -70.4071 S.3       11 UNK        -0.2682 
      8 C8        -78.1296   26.3222  -70.5821 C.3       11 UNK         0.0289 
      9 C9        -77.5800   27.6637  -71.0727 C.ar      11 UNK        -0.0687 
     10 C10       -78.2376   28.4244  -72.0467 C.ar      11 UNK        -0.0823 
     11 C11       -77.6729   29.6018  -72.5409 C.ar      11 UNK        -0.0830 
     12 C12       -76.4483   30.0427  -72.0360 C.ar      11 UNK        -0.1021 
     13 C13       -75.7858   29.3091  -71.0489 C.ar      11 UNK        -0.0753 
     14 C14       -76.3537   28.1215  -70.5752 C.ar      11 UNK        -0.0933 
     15 C15       -74.4482   29.7944  -70.5127 C.3       11 UNK         0.0166 
     16 S16       -73.0799   28.8764  -71.2780 S.3       11 UNK        -0.2615 
     17 C17       -71.7584   30.1347  -71.3206 C.3       11 UNK        -0.0865 
     18 CA        -71.6800   30.8677  -72.6871 C.3       10 UNK         0.0862 
     19 C         -70.6017   31.9898  -72.6576 C.2       10 UNK         0.5551 
     20 N         -69.5630   31.9391  -73.4828 N.am      10 UNK        -0.7319 
     21 O         -70.7151   32.9276  -71.8720 O.2       10 UNK        -0.5018 
     22 N         -71.5524   29.9174  -73.8043 N.am      10 UNK        -0.4509 
     23 C         -71.8835   30.1562  -75.0772 C.2       10 UNK         0.4899 
     24 O         -72.2973   31.2435  -75.4804 O.2       10 UNK        -0.4839 
     25 CA        -71.7541   28.9910  -76.0774 C.3       9 UNK         0.0222 
     26 CB        -70.3695   28.9849  -76.7540 C.3       9 UNK        -0.1966 
     27 N         -72.1035   27.6677  -75.5358 N.am      9 UNK        -0.4218 
     28 C         -71.4555   26.9279  -74.6226 C.2       9 UNK         0.5020 
     29 O         -70.4188   27.2871  -74.0623 O.2       9 UNK        -0.5274 
     30 CA        -72.0714   25.5729  -74.2362 C.3       8 UNK         0.0270 
     31 CB        -72.9195   25.7109  -72.9631 C.3       8 UNK        -0.1976 
     32 N         -72.8807   24.9721  -75.2999 N.am      8 UNK        -0.4313 
     33 C         -72.3637   24.3374  -76.3621 C.2       8 UNK         0.5041 
     34 O         -71.1545   24.2146  -76.5636 O.2       8 UNK        -0.5577 
     35 CA        -73.3549   23.7231  -77.3654 C.3       7 UNK         0.0284 
     36 CB        -73.9670   22.4294  -76.8055 C.3       7 UNK        -0.1958 
     37 N         -74.4193   24.6488  -77.7546 N.am      7 UNK        -0.4454 
     38 C         -74.2282   25.7547  -78.4881 C.2       7 UNK         0.5089 
     39 O         -73.1388   26.0983  -78.9472 O.2       7 UNK        -0.5125 
     40 CA        -75.4604   26.6396  -78.7390 C.3       6 UNK         0.0408 
     41 CB        -76.2594   26.1349  -79.9510 C.3       6 UNK        -0.1791 
     42 N         -76.3390   26.7294  -77.5714 N.am      6 UNK        -0.4762 
     43 C         -76.0015   27.3141  -76.4122 C.2       6 UNK         0.5007 
     44 O         -74.9096   27.8419  -76.2042 O.2       6 UNK        -0.5032 
     45 CA        -77.0450   27.2419  -75.2811 C.3       5 UNK         0.0783 
     46 C46       -78.1978   28.2541  -75.5047 C.3       11 UNK        -0.0857 
     47 S47       -77.6893   29.9940  -75.2776 S.3       11 UNK        -0.2512 
     48 C48       -78.3771   30.3848  -73.6377 C.3       11 UNK         0.0225 
     49 N         -77.5481   25.8719  -75.1247 N.am      5 UNK        -0.4615 
     50 C         -76.7921   24.8279  -74.7469 C.2       4 UNK         0.5053 
     51 O         -75.6091   24.9268  -74.4292 O.2       4 UNK        -0.5105 
     52 CA        -77.4268   23.4248  -74.7745 C.3       4 UNK         0.0263 
     53 CB        -77.9745   23.0464  -73.3911 C.3       4 UNK        -0.1981 
     54 N         -78.4772   23.2747  -75.7821 N.am      4 UNK        -0.4224 
     55 C         -78.2925   23.4117  -77.1031 C.2       3 UNK         0.4895 
     56 O         -77.1904   23.5964  -77.6213 O.2       3 UNK        -0.5091 
     57 CA        -79.5508   23.3973  -77.9917 C.3       3 UNK         0.0250 
     58 CB        -79.7575   22.0015  -78.6003 C.3       3 UNK        -0.1996 
     59 N         -80.7889   23.8245  -77.3204 N.am      3 UNK        -0.4254 
     60 C         -80.9801   25.0053  -76.7106 C.2       2 UNK         0.5004 
     61 O         -80.0909   25.8502  -76.6010 O.2       2 UNK        -0.5226 
     62 CA        -82.3710   25.2855  -76.1024 C.3       2 UNK         0.0269 
     63 CB        -83.4191   24.1899  -76.3885 C.3       2 UNK        -0.1926 
     64 N         -82.2749   25.4789  -74.6531 N.am      2 UNK        -0.4687 
     65 C         -81.8884   26.6129  -74.0503 C.2       1 UNK         0.5165 
     66 O         -81.6521   27.6658  -74.6430 O.2       1 UNK        -0.5079 
     67 H67       -84.9323   24.8578  -70.7479 H         1 UNK         0.0900 
     68 H68       -86.0791   25.5483  -71.8976 H         1 UNK         0.0900 
     69 H69       -85.7156   26.3985  -70.3933 H         1 UNK         0.0900 
     70 H70       -82.8138   25.1231  -71.3898 H         1 UNK         0.2959 
     71 H71       -81.6665   27.6008  -72.1825 H         1 UNK         0.1079 
     72 H72       -80.6505   24.7192  -72.1305 H         1 UNK         0.0837 
     73 H73       -79.6543   25.9811  -72.7890 H         1 UNK         0.0837 
     74 H74       -77.7032   26.0919  -69.6046 H         1 UNK         0.0685 
     75 H75       -77.7893   25.5319  -71.2527 H         1 UNK         0.0685 
     76 H76       -79.1849   28.1032  -72.4462 H         1 UNK         0.1434 
     77 H77       -76.0051   30.9504  -72.4230 H         1 UNK         0.1329 
     78 H78       -75.8247   27.5438  -69.8293 H         1 UNK         0.1335 
     79 H79       -74.3349   30.8621  -70.7073 H         1 UNK         0.0680 
     80 H80       -74.4079   29.6703  -69.4296 H         1 UNK         0.0680 
     81 H81       -70.8114   29.6352  -71.1082 H         1 UNK         0.1032 
     82 H82       -71.9115   30.8438  -70.5045 H         1 UNK         0.1032 
     83 H83       -72.6315   31.3855  -72.8233 H         1 UNK         0.0461 
     84 H84       -68.8725   32.6728  -73.4579 H         1 UNK         0.3453 
     85 H85       -69.4676   31.1735  -74.1303 H         1 UNK         0.3453 
     86 H86       -71.1783   29.0005  -73.5811 H         1 UNK         0.2984 
     87 H87       -72.4924   29.1771  -76.8591 H         1 UNK         0.0554 
     88 H88       -70.3039   28.2037  -77.5115 H         1 UNK         0.0847 
     89 H89       -69.5626   28.8269  -76.0382 H         1 UNK         0.0847 
     90 H90       -70.1772   29.9361  -77.2518 H         1 UNK         0.0847 
     91 H91       -73.0096   27.3307  -75.8484 H         1 UNK         0.3141 
     92 H92       -71.2463   24.8937  -74.0109 H         1 UNK         0.0743 
     93 H93       -73.7420   26.4148  -73.1001 H         1 UNK         0.0784 
     94 H94       -73.3449   24.7538  -72.6611 H         1 UNK         0.0784 
     95 H95       -72.3142   26.0721  -72.1310 H         1 UNK         0.0784 
     96 H96       -73.8909   24.9988  -75.1702 H         1 UNK         0.3213 
     97 H97       -72.7966   23.4655  -78.2682 H         1 UNK         0.0855 
     98 H98       -74.4959   22.6055  -75.8696 H         1 UNK         0.0814 
     99 H99       -73.1911   21.6897  -76.6039 H         1 UNK         0.0814 
    100 H100      -74.6684   21.9815  -77.5099 H         1 UNK         0.0814 
    101 H101      -75.3688   24.4084  -77.4847 H         1 UNK         0.3105 
    102 H102      -75.1043   27.6471  -78.9647 H         1 UNK         0.0547 
    103 H103      -75.6296   26.0929  -80.8407 H         1 UNK         0.0837 
    104 H104      -76.6574   25.1329  -79.7881 H         1 UNK         0.0837 
    105 H105      -77.0958   26.7957  -80.1790 H         1 UNK         0.0837 
    106 H106      -77.2391   26.2752  -77.6389 H         1 UNK         0.3020 
    107 H107      -76.5329   27.5027  -74.3513 H         1 UNK         0.1245 
    108 H108      -79.0188   28.0393  -74.8219 H         1 UNK         0.0781 
    109 H109      -78.6246   28.1481  -76.5038 H         1 UNK         0.0781 
    110 H110      -79.4503   30.1857  -73.6329 H         1 UNK         0.0836 
    111 H111      -78.2661   31.4544  -73.4532 H         1 UNK         0.0836 
    112 H112      -78.4955   25.7092  -75.4533 H         1 UNK         0.3022 
    113 H113      -76.6364   22.7153  -75.0231 H         1 UNK         0.0747 
    114 H114      -78.3104   22.0095  -73.3677 H         1 UNK         0.0793 
    115 H115      -77.2064   23.1536  -72.6236 H         1 UNK         0.0793 
    116 H116      -78.8131   23.6768  -73.1038 H         1 UNK         0.0793 
    117 H117      -79.4162   23.1179  -75.4475 H         1 UNK         0.3047 
    118 H118      -79.3680   24.1006  -78.8068 H         1 UNK         0.0822 
    119 H119      -80.5734   21.9994  -79.3234 H         1 UNK         0.0807 
    120 H120      -79.9822   21.2564  -77.8360 H         1 UNK         0.0807 
    121 H121      -78.8616   21.6684  -79.1267 H         1 UNK         0.0807 
    122 H122      -81.5659   23.1807  -77.3613 H         1 UNK         0.2946 
    123 H123      -82.7254   26.2125  -76.5595 H         1 UNK         0.1144 
    124 H124      -83.5540   24.0385  -77.4606 H         1 UNK         0.0793 
    125 H125      -84.3933   24.4722  -75.9885 H         1 UNK         0.0793 
    126 H126      -83.1490   23.2316  -75.9428 H         1 UNK         0.0793 
    127 H127      -82.4631   24.6724  -74.0756 H         1 UNK         0.2896 
@<TRIPOS>BOND
     1    1    2 1    
     2    1   67 1    
     3    1   68 1    
     4    1   69 1    
     5    2    3 2    
     6    2    4 am   BACKBONE|DICT|INTERRES
     7    4    5 1    
     8    4   70 1    
     9    5    6 1    
    10    5   65 1    
    11    5   71 1    
    12    6    7 1    
    13    6   72 1    
    14    6   73 1    
    15    7    8 1    
    16    8    9 1    
    17    8   74 1    
    18    8   75 1    
    19    9   10 ar   
    20    9   14 ar   
    21   10   11 ar   
    22   10   76 1    
    23   11   12 ar   
    24   11   48 1    
    25   12   13 ar   
    26   12   77 1    
    27   13   14 ar   
    28   13   15 1    
    29   14   78 1    
    30   15   16 1    
    31   15   79 1    
    32   15   80 1    
    33   16   17 1    
    34   17   18 1    
    35   17   81 1    
    36   17   82 1    
    37   18   19 1    
    38   18   22 1    
    39   18   83 1    
    40   19   20 am   BACKBONE|DICT|INTERRES
    41   19   21 2    
    42   20   84 1    
    43   20   85 1    
    44   22   23 am   BACKBONE|DICT|INTERRES
    45   22   86 1    
    46   23   24 2    
    47   23   25 1    
    48   25   26 1    
    49   25   27 1    
    50   25   87 1    
    51   26   88 1    
    52   26   89 1    
    53   26   90 1    
    54   27   28 am   BACKBONE|DICT|INTERRES
    55   27   91 1    
    56   28   29 2    
    57   28   30 1    
    58   30   31 1    
    59   30   32 1    
    60   30   92 1    
    61   31   93 1    
    62   31   94 1    
    63   31   95 1    
    64   32   33 am   BACKBONE|DICT|INTERRES
    65   32   96 1    
    66   33   34 2    
    67   33   35 1    
    68   35   36 1    
    69   35   37 1    
    70   35   97 1    
    71   36   98 1    
    72   36   99 1    
    73   36  100 1    
    74   37   38 am   BACKBONE|DICT|INTERRES
    75   37  101 1    
    76   38   39 2    
    77   38   40 1    
    78   40   41 1    
    79   40   42 1    
    80   40  102 1    
    81   41  103 1    
    82   41  104 1    
    83   41  105 1    
    84   42   43 am   BACKBONE|DICT|INTERRES
    85   42  106 1    
    86   43   44 2    
    87   43   45 1    
    88   45   46 1    
    89   45   49 1    
    90   45  107 1    
    91   46   47 1    
    92   46  108 1    
    93   46  109 1    
    94   47   48 1    
    95   48  110 1    
    96   48  111 1    
    97   49   50 am   BACKBONE|DICT|INTERRES
    98   49  112 1    
    99   50   51 2    
   100   50   52 1    
   101   52   53 1    
   102   52   54 1    
   103   52  113 1    
   104   53  114 1    
   105   53  115 1    
   106   53  116 1    
   107   54   55 am   BACKBONE|DICT|INTERRES
   108   54  117 1    
   109   55   56 2    
   110   55   57 1    
   111   57   58 1    
   112   57   59 1    
   113   57  118 1    
   114   58  119 1    
   115   58  120 1    
   116   58  121 1    
   117   59   60 am   BACKBONE|DICT|INTERRES
   118   59  122 1    
   119   60   61 2    
   120   60   62 1    
   121   62   63 1    
   122   62   64 1    
   123   62  123 1    
   124   63  124 1    
   125   63  125 1    
   126   63  126 1    
   127   64   65 am   BACKBONE|DICT|INTERRES
   128   64  127 1    
   129   65   66 2    
@<TRIPOS>SUBSTRUCTURE
     1 UNK         1 GROUP             0       ****    0 ROOT    
