@<TRIPOS>MOLECULE
3R135
127   129    1
SMALL
USER_CHARGES


@<TRIPOS>ATOM
      1 CA        -82.0902   26.3786  -72.9770 C.3       0 UNK        -0.1998 
      2 C         -83.5214   26.8304  -73.2660 C.2       0 UNK         0.4909 
      3 O         -84.4330   26.3065  -72.6289 O.2       0 UNK        -0.5240 
      4 N         -83.8146   27.7641  -74.1887 N.am      1 UNK        -0.4739 
      5 CA        -82.9630   28.5606  -75.0923 C.3       1 UNK         0.0864 
      6 C6        -82.3357   29.8411  -74.4541 C.3       11 UNK        -0.0881 
      7 S7        -81.3619   29.6366  -72.9220 S.3       11 UNK        -0.2682 
      8 C8        -79.6615   29.6565  -73.5666 C.3       11 UNK         0.0289 
      9 C9        -78.6444   29.3452  -72.4778 C.ar      11 UNK        -0.0687 
     10 C10       -78.5716   28.0608  -71.9295 C.ar      11 UNK        -0.0823 
     11 C11       -77.6458   27.7673  -70.9236 C.ar      11 UNK        -0.0830 
     12 C12       -76.7843   28.7692  -70.4697 C.ar      11 UNK        -0.1021 
     13 C13       -76.8298   30.0525  -71.0250 C.ar      11 UNK        -0.0753 
     14 C14       -77.7672   30.3350  -72.0243 C.ar      11 UNK        -0.0933 
     15 C15       -75.8677   31.1388  -70.5526 C.3       11 UNK         0.0166 
     16 S16       -74.1179   30.6206  -70.6026 S.3       11 UNK        -0.2615 
     17 C17       -74.0026   29.9059  -72.2772 C.3       11 UNK        -0.0865 
     18 CA        -72.5793   29.9494  -72.8842 C.3       10 UNK         0.0862 
     19 C         -71.6090   28.9645  -72.1772 C.2       10 UNK         0.5551 
     20 N         -71.6370   27.6833  -72.5241 N.am      10 UNK        -0.7319 
     21 O         -70.8168   29.3664  -71.3287 O.2       10 UNK        -0.5018 
     22 N         -72.6447   29.6938  -74.3276 N.am      10 UNK        -0.4509 
     23 C         -71.8325   30.2374  -75.2398 C.2       10 UNK         0.4899 
     24 O         -70.9715   31.0809  -74.9825 O.2       10 UNK        -0.4839 
     25 CA        -72.0378   29.7498  -76.6847 C.3       9 UNK         0.0222 
     26 CB        -71.0591   30.3878  -77.6945 C.3       9 UNK        -0.1966 
     27 N         -72.0281   28.2854  -76.7796 N.am      9 UNK        -0.4218 
     28 C         -71.0028   27.4550  -76.5252 C.2       9 UNK         0.5020 
     29 O         -69.8819   27.8395  -76.1887 O.2       9 UNK        -0.5274 
     30 CA        -71.2435   25.9353  -76.6608 C.3       8 UNK         0.0270 
     31 CB        -70.9507   25.2145  -75.3334 C.3       8 UNK        -0.1976 
     32 N         -72.5923   25.5739  -77.1044 N.am      8 UNK        -0.4313 
     33 C         -73.0650   25.7070  -78.3507 C.2       8 UNK         0.5041 
     34 O         -72.3834   26.0800  -79.3059 O.2       8 UNK        -0.5577 
     35 CA        -74.5659   25.4303  -78.5532 C.3       7 UNK         0.0284 
     36 CB        -74.8104   23.9420  -78.8468 C.3       7 UNK        -0.1958 
     37 N         -75.3907   25.8484  -77.4137 N.am      7 UNK        -0.4454 
     38 C         -75.5029   27.1072  -76.9627 C.2       7 UNK         0.5089 
     39 O         -74.9285   28.0715  -77.4667 O.2       7 UNK        -0.5125 
     40 CA        -76.3552   27.3126  -75.7009 C.3       6 UNK         0.0408 
     41 CB        -77.8532   27.2587  -76.0379 C.3       6 UNK        -0.1791 
     42 N         -76.0420   26.3169  -74.6763 N.am      6 UNK        -0.4762 
     43 C         -74.8858   26.2593  -74.0008 C.2       6 UNK         0.5007 
     44 O         -73.9642   27.0640  -74.1506 O.2       6 UNK        -0.5032 
     45 CA        -74.7037   25.0711  -73.0349 C.3       5 UNK         0.0783 
     46 C46       -75.2817   25.3718  -71.6252 C.3       11 UNK        -0.0857 
     47 S47       -77.0869   25.1036  -71.4959 S.3       11 UNK        -0.2512 
     48 C48       -77.6012   26.3782  -70.3043 C.3       11 UNK         0.0225 
     49 N         -75.2225   23.8166  -73.5920 N.am      5 UNK        -0.4615 
     50 C         -74.7776   23.2140  -74.7017 C.2       4 UNK         0.5053 
     51 O         -73.8134   23.6097  -75.3539 O.2       4 UNK        -0.5105 
     52 CA        -75.5819   21.9979  -75.1962 C.3       4 UNK         0.0263 
     53 CB        -75.1063   20.7160  -74.4948 C.3       4 UNK        -0.1981 
     54 N         -77.0327   22.1489  -75.0214 N.am      4 UNK        -0.4224 
     55 C         -77.7678   23.1150  -75.5895 C.2       3 UNK         0.4895 
     56 O         -77.3007   23.9729  -76.3444 O.2       3 UNK        -0.5091 
     57 CA        -79.2577   23.1598  -75.2235 C.3       3 UNK         0.0250 
     58 CB        -79.4421   23.5500  -73.7414 C.3       3 UNK        -0.1996 
     59 N         -79.9085   24.1359  -76.0958 N.am      3 UNK        -0.4254 
     60 C         -81.2139   24.4138  -76.1592 C.2       2 UNK         0.5004 
     61 O         -82.0815   23.8288  -75.5069 O.2       2 UNK        -0.5226 
     62 CA        -81.6287   25.5471  -77.1044 C.3       2 UNK         0.0269 
     63 CB        -82.4697   25.0058  -78.2729 C.3       2 UNK        -0.1926 
     64 N         -82.4227   26.5087  -76.3400 N.am      2 UNK        -0.4687 
     65 C         -82.0277   27.7476  -76.0185 C.2       1 UNK         0.5165 
     66 O         -80.9822   28.2493  -76.4306 O.2       1 UNK        -0.5079 
     67 H67       -81.3357   26.8476  -73.6007 H         1 UNK         0.0900 
     68 H68       -82.0122   25.3016  -73.1174 H         1 UNK         0.0900 
     69 H69       -81.8400   26.5979  -71.9395 H         1 UNK         0.0900 
     70 H70       -84.7975   27.9727  -74.2981 H         1 UNK         0.2959 
     71 H71       -83.6830   28.9514  -75.8139 H         1 UNK         0.1079 
     72 H72       -81.7442   30.3931  -75.1870 H         1 UNK         0.0837 
     73 H73       -83.1494   30.5210  -74.1973 H         1 UNK         0.0837 
     74 H74       -79.4611   30.6280  -74.0209 H         1 UNK         0.0685 
     75 H75       -79.5700   28.9204  -74.3609 H         1 UNK         0.0685 
     76 H76       -79.2435   27.2895  -72.2787 H         1 UNK         0.1434 
     77 H77       -76.0672   28.5514  -69.6899 H         1 UNK         0.1329 
     78 H78       -77.8138   31.3272  -72.4519 H         1 UNK         0.1335 
     79 H79       -75.9763   32.0398  -71.1585 H         1 UNK         0.0680 
     80 H80       -76.1242   31.4212  -69.5308 H         1 UNK         0.0680 
     81 H81       -74.3874   28.8853  -72.2507 H         1 UNK         0.1032 
     82 H82       -74.6842   30.4626  -72.9228 H         1 UNK         0.1032 
     83 H83       -72.1910   30.9585  -72.7308 H         1 UNK         0.0461 
     84 H84       -71.0039   27.0345  -72.0859 H         1 UNK         0.3453 
     85 H85       -72.3163   27.3671  -73.2063 H         1 UNK         0.3453 
     86 H86       -73.2636   28.9413  -74.6078 H         1 UNK         0.2984 
     87 H87       -73.0429   30.0633  -76.9699 H         1 UNK         0.0554 
     88 H88       -71.2495   30.0347  -78.7079 H         1 UNK         0.0847 
     89 H89       -70.0190   30.1679  -77.4522 H         1 UNK         0.0847 
     90 H90       -71.1647   31.4732  -77.7045 H         1 UNK         0.0847 
     91 H91       -72.9184   27.8756  -77.0417 H         1 UNK         0.3141 
     92 H92       -70.5336   25.5699  -77.4056 H         1 UNK         0.0743 
     93 H93       -69.9423   25.4307  -74.9781 H         1 UNK         0.0784 
     94 H94       -71.6452   25.5181  -74.5505 H         1 UNK         0.0784 
     95 H95       -71.0271   24.1328  -75.4455 H         1 UNK         0.0784 
     96 H96       -73.2033   25.1652  -76.4023 H         1 UNK         0.3213 
     97 H97       -74.8924   26.0080  -79.4205 H         1 UNK         0.0855 
     98 H98       -74.4827   23.3096  -78.0220 H         1 UNK         0.0814 
     99 H99       -74.2632   23.6261  -79.7360 H         1 UNK         0.0814 
    100 H100      -75.8666   23.7394  -79.0255 H         1 UNK         0.0814 
    101 H101      -75.9342   25.1241  -76.9487 H         1 UNK         0.3105 
    102 H102      -76.1336   28.2977  -75.2842 H         1 UNK         0.0547 
    103 H103      -78.0964   26.4413  -76.7151 H         1 UNK         0.0837 
    104 H104      -78.4632   27.1342  -75.1444 H         1 UNK         0.0837 
    105 H105      -78.1694   28.1801  -76.5281 H         1 UNK         0.0837 
    106 H106      -76.7219   25.5868  -74.5233 H         1 UNK         0.3020 
    107 H107      -73.6247   24.9418  -72.9229 H         1 UNK         0.1245 
    108 H108      -75.0294   26.3856  -71.3071 H         1 UNK         0.0781 
    109 H109      -74.8072   24.7129  -70.8966 H         1 UNK         0.0781 
    110 H110      -76.9386   26.3511  -69.4378 H         1 UNK         0.0836 
    111 H111      -78.5962   26.1277  -69.9339 H         1 UNK         0.0836 
    112 H112      -76.0258   23.4305  -73.1175 H         1 UNK         0.3022 
    113 H113      -75.3894   21.8907  -76.2654 H         1 UNK         0.0747 
    114 H114      -75.5998   19.8337  -74.9030 H         1 UNK         0.0793 
    115 H115      -74.0327   20.5746  -74.6284 H         1 UNK         0.0793 
    116 H116      -75.3003   20.7442  -73.4218 H         1 UNK         0.0793 
    117 H117      -77.4888   21.4795  -74.4178 H         1 UNK         0.3047 
    118 H118      -79.6885   22.1739  -75.4085 H         1 UNK         0.0822 
    119 H119      -78.8423   22.9268  -73.0774 H         1 UNK         0.0807 
    120 H120      -80.4771   23.4295  -73.4238 H         1 UNK         0.0807 
    121 H121      -79.1599   24.5881  -73.5642 H         1 UNK         0.0807 
    122 H122      -79.2519   24.6230  -76.6938 H         1 UNK         0.2946 
    123 H123      -80.7343   26.0207  -77.5162 H         1 UNK         0.1144 
    124 H124      -81.9031   24.2798  -78.8574 H         1 UNK         0.0793 
    125 H125      -82.7661   25.8070  -78.9500 H         1 UNK         0.0793 
    126 H126      -83.3767   24.5092  -77.9254 H         1 UNK         0.0793 
    127 H127      -83.2709   26.1478  -75.9244 H         1 UNK         0.2896 
@<TRIPOS>BOND
     1    1    2 1    
     2    1   67 1    
     3    1   68 1    
     4    1   69 1    
     5    2    3 2    
     6    2    4 am   BACKBONE|DICT|INTERRES
     7    4    5 1    
     8    4   70 1    
     9    5    6 1    
    10    5   65 1    
    11    5   71 1    
    12    6    7 1    
    13    6   72 1    
    14    6   73 1    
    15    7    8 1    
    16    8    9 1    
    17    8   74 1    
    18    8   75 1    
    19    9   10 ar   
    20    9   14 ar   
    21   10   11 ar   
    22   10   76 1    
    23   11   12 ar   
    24   11   48 1    
    25   12   13 ar   
    26   12   77 1    
    27   13   14 ar   
    28   13   15 1    
    29   14   78 1    
    30   15   16 1    
    31   15   79 1    
    32   15   80 1    
    33   16   17 1    
    34   17   18 1    
    35   17   81 1    
    36   17   82 1    
    37   18   19 1    
    38   18   22 1    
    39   18   83 1    
    40   19   20 am   BACKBONE|DICT|INTERRES
    41   19   21 2    
    42   20   84 1    
    43   20   85 1    
    44   22   23 am   BACKBONE|DICT|INTERRES
    45   22   86 1    
    46   23   24 2    
    47   23   25 1    
    48   25   26 1    
    49   25   27 1    
    50   25   87 1    
    51   26   88 1    
    52   26   89 1    
    53   26   90 1    
    54   27   28 am   BACKBONE|DICT|INTERRES
    55   27   91 1    
    56   28   29 2    
    57   28   30 1    
    58   30   31 1    
    59   30   32 1    
    60   30   92 1    
    61   31   93 1    
    62   31   94 1    
    63   31   95 1    
    64   32   33 am   BACKBONE|DICT|INTERRES
    65   32   96 1    
    66   33   34 2    
    67   33   35 1    
    68   35   36 1    
    69   35   37 1    
    70   35   97 1    
    71   36   98 1    
    72   36   99 1    
    73   36  100 1    
    74   37   38 am   BACKBONE|DICT|INTERRES
    75   37  101 1    
    76   38   39 2    
    77   38   40 1    
    78   40   41 1    
    79   40   42 1    
    80   40  102 1    
    81   41  103 1    
    82   41  104 1    
    83   41  105 1    
    84   42   43 am   BACKBONE|DICT|INTERRES
    85   42  106 1    
    86   43   44 2    
    87   43   45 1    
    88   45   46 1    
    89   45   49 1    
    90   45  107 1    
    91   46   47 1    
    92   46  108 1    
    93   46  109 1    
    94   47   48 1    
    95   48  110 1    
    96   48  111 1    
    97   49   50 am   BACKBONE|DICT|INTERRES
    98   49  112 1    
    99   50   51 2    
   100   50   52 1    
   101   52   53 1    
   102   52   54 1    
   103   52  113 1    
   104   53  114 1    
   105   53  115 1    
   106   53  116 1    
   107   54   55 am   BACKBONE|DICT|INTERRES
   108   54  117 1    
   109   55   56 2    
   110   55   57 1    
   111   57   58 1    
   112   57   59 1    
   113   57  118 1    
   114   58  119 1    
   115   58  120 1    
   116   58  121 1    
   117   59   60 am   BACKBONE|DICT|INTERRES
   118   59  122 1    
   119   60   61 2    
   120   60   62 1    
   121   62   63 1    
   122   62   64 1    
   123   62  123 1    
   124   63  124 1    
   125   63  125 1    
   126   63  126 1    
   127   64   65 am   BACKBONE|DICT|INTERRES
   128   64  127 1    
   129   65   66 2    
@<TRIPOS>SUBSTRUCTURE
     1 UNK         1 GROUP             0       ****    0 ROOT    
