@<TRIPOS>MOLECULE
3R135
127   129    1
SMALL
USER_CHARGES


@<TRIPOS>ATOM
      1 CA        -80.8274   22.4177  -72.2526 C.3       0 UNK        -0.1998 
      2 C         -79.5949   23.0100  -71.5747 C.2       0 UNK         0.4909 
      3 O         -78.6396   22.2809  -71.3195 O.2       0 UNK        -0.5240 
      4 N         -79.5623   24.3109  -71.2559 N.am      1 UNK        -0.4739 
      5 CA        -80.5510   25.3375  -71.5968 C.3       1 UNK         0.0864 
      6 C6        -80.4810   26.5089  -70.5879 C.3       11 UNK        -0.0881 
      7 S7        -81.8770   27.6713  -70.7563 S.3       11 UNK        -0.2682 
      8 C8        -81.1539   29.2072  -70.0931 C.3       11 UNK         0.0289 
      9 C9        -80.0505   29.7694  -70.9809 C.ar      11 UNK        -0.0687 
     10 C10       -80.3579   30.2766  -72.2479 C.ar      11 UNK        -0.0823 
     11 C11       -79.3553   30.8091  -73.0651 C.ar      11 UNK        -0.0830 
     12 C12       -78.0424   30.8586  -72.5890 C.ar      11 UNK        -0.1021 
     13 C13       -77.7174   30.3332  -71.3377 C.ar      11 UNK        -0.0753 
     14 C14       -78.7248   29.7929  -70.5333 C.ar      11 UNK        -0.0933 
     15 C15       -76.2687   30.3396  -70.8830 C.3       11 UNK         0.0166 
     16 S16       -75.3252   29.0546  -71.7563 S.3       11 UNK        -0.2615 
     17 C17       -73.6228   29.6217  -71.4286 C.3       11 UNK        -0.0865 
     18 CA        -72.5314   28.6898  -72.0187 C.3       10 UNK         0.0862 
     19 C         -72.4319   27.3218  -71.2858 C.2       10 UNK         0.5551 
     20 N         -72.3025   26.2047  -71.9889 N.am      10 UNK        -0.7319 
     21 O         -72.4402   27.2735  -70.0581 O.2       10 UNK        -0.5018 
     22 N         -72.6328   28.5808  -73.4851 N.am      10 UNK        -0.4509 
     23 C         -71.9019   29.2736  -74.3664 C.2       10 UNK         0.4899 
     24 O         -71.0524   30.1085  -74.0494 O.2       10 UNK        -0.4839 
     25 CA        -72.1691   28.9711  -75.8549 C.3       9 UNK         0.0222 
     26 CB        -71.1851   29.6782  -76.8112 C.3       9 UNK        -0.1966 
     27 N         -72.2301   27.5305  -76.1288 N.am      9 UNK        -0.4218 
     28 C         -71.2598   26.6215  -75.9526 C.2       9 UNK         0.5020 
     29 O         -70.1127   26.8931  -75.5961 O.2       9 UNK        -0.5274 
     30 CA        -71.6297   25.1472  -76.1907 C.3       8 UNK         0.0270 
     31 CB        -71.9331   24.4346  -74.8644 C.3       8 UNK        -0.1976 
     32 N         -72.7600   24.9612  -77.1058 N.am      8 UNK        -0.4313 
     33 C         -72.6394   24.9806  -78.4390 C.2       8 UNK         0.5041 
     34 O         -71.5934   25.2485  -79.0319 O.2       8 UNK        -0.5577 
     35 CA        -73.8859   24.6035  -79.2456 C.3       7 UNK         0.0284 
     36 CB        -74.2180   23.1095  -79.0833 C.3       7 UNK        -0.1958 
     37 N         -75.0470   25.4165  -78.8797 N.am      7 UNK        -0.4454 
     38 C         -75.3477   26.5742  -79.4834 C.2       7 UNK         0.5089 
     39 O         -74.6178   27.1294  -80.3058 O.2       7 UNK        -0.5125 
     40 CA        -76.7181   27.1916  -79.1714 C.3       6 UNK         0.0408 
     41 CB        -77.8430   26.3569  -79.8058 C.3       6 UNK        -0.1791 
     42 N         -76.9825   27.3597  -77.7449 N.am      6 UNK        -0.4762 
     43 C         -76.4286   28.3065  -76.9744 C.2       6 UNK         0.5007 
     44 O         -75.5363   29.0663  -77.3521 O.2       6 UNK        -0.5032 
     45 CA        -76.9862   28.4282  -75.5413 C.3       5 UNK         0.0783 
     46 C46       -78.4352   28.9887  -75.5504 C.3       11 UNK        -0.0857 
     47 S47       -78.4832   30.8039  -75.7418 S.3       11 UNK        -0.2512 
     48 C48       -79.6964   31.3048  -74.4675 C.3       11 UNK         0.0225 
     49 N         -76.9112   27.1519  -74.8310 N.am      5 UNK        -0.4615 
     50 C         -75.7892   26.4802  -74.5439 C.2       4 UNK         0.5053 
     51 O         -74.6542   26.9026  -74.7568 O.2       4 UNK        -0.5105 
     52 CA        -75.9623   25.0724  -73.9555 C.3       4 UNK         0.0263 
     53 CB        -76.0835   25.1322  -72.4247 C.3       4 UNK        -0.1981 
     54 N         -77.1128   24.3723  -74.5313 N.am      4 UNK        -0.4224 
     55 C         -77.1893   23.9704  -75.8093 C.2       3 UNK         0.4895 
     56 O         -76.2775   24.1051  -76.6264 O.2       3 UNK        -0.5091 
     57 CA        -78.5231   23.3520  -76.2621 C.3       3 UNK         0.0250 
     58 CB        -78.6136   21.8805  -75.8274 C.3       3 UNK        -0.1996 
     59 N         -79.6872   24.0870  -75.7594 N.am      3 UNK        -0.4254 
     60 C         -79.9970   25.3447  -76.1062 C.2       2 UNK         0.5004 
     61 O         -79.3715   25.9954  -76.9412 O.2       2 UNK        -0.5226 
     62 CA        -81.1674   26.0093  -75.3573 C.3       2 UNK         0.0269 
     63 CB        -82.4987   25.7070  -76.0623 C.3       2 UNK        -0.1926 
     64 N         -81.2651   25.6348  -73.9391 N.am      2 UNK        -0.4687 
     65 C         -80.2858   25.8081  -73.0392 C.2       1 UNK         0.5165 
     66 O         -79.1850   26.2820  -73.3201 O.2       1 UNK        -0.5079 
     67 H67       -80.6951   21.3472  -72.4102 H         1 UNK         0.0900 
     68 H68       -81.0067   22.8717  -73.2245 H         1 UNK         0.0900 
     69 H69       -81.7125   22.5489  -71.6309 H         1 UNK         0.0900 
     70 H70       -78.7260   24.6653  -70.8148 H         1 UNK         0.2959 
     71 H71       -81.5522   24.9075  -71.5345 H         1 UNK         0.1079 
     72 H72       -80.5054   26.1220  -69.5677 H         1 UNK         0.0837 
     73 H73       -79.5326   27.0409  -70.6833 H         1 UNK         0.0837 
     74 H74       -81.9442   29.9529  -69.9962 H         1 UNK         0.0685 
     75 H75       -80.7855   29.0209  -69.0829 H         1 UNK         0.0685 
     76 H76       -81.3802   30.2414  -72.5993 H         1 UNK         0.1434 
     77 H77       -77.2581   31.2697  -73.2097 H         1 UNK         0.1329 
     78 H78       -78.4757   29.3883  -69.5618 H         1 UNK         0.1335 
     79 H79       -75.8328   31.3196  -71.0835 H         1 UNK         0.0680 
     80 H80       -76.1943   30.1768  -69.8067 H         1 UNK         0.0680 
     81 H81       -73.4873   29.7388  -70.3517 H         1 UNK         0.1032 
     82 H82       -73.5073   30.6213  -71.8505 H         1 UNK         0.1032 
     83 H83       -71.5732   29.1569  -71.7849 H         1 UNK         0.0461 
     84 H84       -72.2228   25.3256  -71.5033 H         1 UNK         0.3453 
     85 H85       -72.2481   26.2420  -72.9919 H         1 UNK         0.3453 
     86 H86       -73.3437   27.9425  -73.8352 H         1 UNK         0.2984 
     87 H87       -73.1654   29.3611  -76.0652 H         1 UNK         0.0554 
     88 H88       -71.4210   29.4607  -77.8529 H         1 UNK         0.0847 
     89 H89       -70.1531   29.3764  -76.6303 H         1 UNK         0.0847 
     90 H90       -71.2324   30.7608  -76.6880 H         1 UNK         0.0847 
     91 H91       -73.1586   27.1770  -76.3249 H         1 UNK         0.3141 
     92 H92       -70.7504   24.6652  -76.6247 H         1 UNK         0.0743 
     93 H93       -72.8115   24.8513  -74.3757 H         1 UNK         0.0784 
     94 H94       -72.1096   23.3698  -75.0184 H         1 UNK         0.0784 
     95 H95       -71.0942   24.5237  -74.1725 H         1 UNK         0.0784 
     96 H96       -73.6600   24.7388  -76.7023 H         1 UNK         0.3213 
     97 H97       -73.6541   24.7640  -80.3013 H         1 UNK         0.0855 
     98 H98       -74.4427   22.8447  -78.0500 H         1 UNK         0.0814 
     99 H99       -73.3784   22.4894  -79.4003 H         1 UNK         0.0814 
    100 H100      -75.0762   22.8272  -79.6932 H         1 UNK         0.0814 
    101 H101      -75.6701   25.0390  -78.1689 H         1 UNK         0.3105 
    102 H102      -76.7452   28.1810  -79.6334 H         1 UNK         0.0547 
    103 H103      -77.6759   26.2210  -80.8751 H         1 UNK         0.0837 
    104 H104      -77.9154   25.3655  -79.3565 H         1 UNK         0.0837 
    105 H105      -78.8108   26.8447  -79.6887 H         1 UNK         0.0837 
    106 H106      -77.7323   26.7909  -77.3549 H         1 UNK         0.3020 
    107 H107      -76.3443   29.1213  -74.9920 H         1 UNK         0.1245 
    108 H108      -78.9351   28.7194  -74.6198 H         1 UNK         0.0781 
    109 H109      -79.0441   28.5428  -76.3378 H         1 UNK         0.0781 
    110 H110      -80.6797   30.9426  -74.7719 H         1 UNK         0.0836 
    111 H111      -79.7597   32.3935  -74.4495 H         1 UNK         0.0836 
    112 H112      -77.7929   26.7537  -74.5205 H         1 UNK         0.3022 
    113 H113      -75.0719   24.4926  -74.2013 H         1 UNK         0.0747 
    114 H114      -76.1976   24.1373  -71.9939 H         1 UNK         0.0793 
    115 H115      -75.1900   25.5769  -71.9846 H         1 UNK         0.0793 
    116 H116      -76.9307   25.7393  -72.1057 H         1 UNK         0.0793 
    117 H117      -77.9276   24.2846  -73.9428 H         1 UNK         0.3047 
    118 H118      -78.5490   23.3887  -77.3535 H         1 UNK         0.0822 
    119 H119      -79.5173   21.4078  -76.2126 H         1 UNK         0.0807 
    120 H120      -78.6153   21.7747  -74.7416 H         1 UNK         0.0807 
    121 H121      -77.7651   21.3101  -76.2084 H         1 UNK         0.0807 
    122 H122      -80.2737   23.6188  -75.0866 H         1 UNK         0.2946 
    123 H123      -80.9986   27.0878  -75.3969 H         1 UNK         0.1144 
    124 H124      -82.4567   25.9937  -77.1142 H         1 UNK         0.0793 
    125 H125      -83.3218   26.2618  -75.6114 H         1 UNK         0.0793 
    126 H126      -82.7467   24.6456  -76.0234 H         1 UNK         0.0793 
    127 H127      -82.1516   25.2572  -73.6357 H         1 UNK         0.2896 
@<TRIPOS>BOND
     1    1    2 1    
     2    1   67 1    
     3    1   68 1    
     4    1   69 1    
     5    2    3 2    
     6    2    4 am   BACKBONE|DICT|INTERRES
     7    4    5 1    
     8    4   70 1    
     9    5    6 1    
    10    5   65 1    
    11    5   71 1    
    12    6    7 1    
    13    6   72 1    
    14    6   73 1    
    15    7    8 1    
    16    8    9 1    
    17    8   74 1    
    18    8   75 1    
    19    9   10 ar   
    20    9   14 ar   
    21   10   11 ar   
    22   10   76 1    
    23   11   12 ar   
    24   11   48 1    
    25   12   13 ar   
    26   12   77 1    
    27   13   14 ar   
    28   13   15 1    
    29   14   78 1    
    30   15   16 1    
    31   15   79 1    
    32   15   80 1    
    33   16   17 1    
    34   17   18 1    
    35   17   81 1    
    36   17   82 1    
    37   18   19 1    
    38   18   22 1    
    39   18   83 1    
    40   19   20 am   BACKBONE|DICT|INTERRES
    41   19   21 2    
    42   20   84 1    
    43   20   85 1    
    44   22   23 am   BACKBONE|DICT|INTERRES
    45   22   86 1    
    46   23   24 2    
    47   23   25 1    
    48   25   26 1    
    49   25   27 1    
    50   25   87 1    
    51   26   88 1    
    52   26   89 1    
    53   26   90 1    
    54   27   28 am   BACKBONE|DICT|INTERRES
    55   27   91 1    
    56   28   29 2    
    57   28   30 1    
    58   30   31 1    
    59   30   32 1    
    60   30   92 1    
    61   31   93 1    
    62   31   94 1    
    63   31   95 1    
    64   32   33 am   BACKBONE|DICT|INTERRES
    65   32   96 1    
    66   33   34 2    
    67   33   35 1    
    68   35   36 1    
    69   35   37 1    
    70   35   97 1    
    71   36   98 1    
    72   36   99 1    
    73   36  100 1    
    74   37   38 am   BACKBONE|DICT|INTERRES
    75   37  101 1    
    76   38   39 2    
    77   38   40 1    
    78   40   41 1    
    79   40   42 1    
    80   40  102 1    
    81   41  103 1    
    82   41  104 1    
    83   41  105 1    
    84   42   43 am   BACKBONE|DICT|INTERRES
    85   42  106 1    
    86   43   44 2    
    87   43   45 1    
    88   45   46 1    
    89   45   49 1    
    90   45  107 1    
    91   46   47 1    
    92   46  108 1    
    93   46  109 1    
    94   47   48 1    
    95   48  110 1    
    96   48  111 1    
    97   49   50 am   BACKBONE|DICT|INTERRES
    98   49  112 1    
    99   50   51 2    
   100   50   52 1    
   101   52   53 1    
   102   52   54 1    
   103   52  113 1    
   104   53  114 1    
   105   53  115 1    
   106   53  116 1    
   107   54   55 am   BACKBONE|DICT|INTERRES
   108   54  117 1    
   109   55   56 2    
   110   55   57 1    
   111   57   58 1    
   112   57   59 1    
   113   57  118 1    
   114   58  119 1    
   115   58  120 1    
   116   58  121 1    
   117   59   60 am   BACKBONE|DICT|INTERRES
   118   59  122 1    
   119   60   61 2    
   120   60   62 1    
   121   62   63 1    
   122   62   64 1    
   123   62  123 1    
   124   63  124 1    
   125   63  125 1    
   126   63  126 1    
   127   64   65 am   BACKBONE|DICT|INTERRES
   128   64  127 1    
   129   65   66 2    
@<TRIPOS>SUBSTRUCTURE
     1 UNK         1 GROUP             0       ****    0 ROOT    
