@<TRIPOS>MOLECULE
3R135
127   129    1
SMALL
USER_CHARGES


@<TRIPOS>ATOM
      1 CA        -78.9306   21.8612  -71.8526 C.3       0 UNK        -0.1998 
      2 C         -79.9344   22.8452  -72.4327 C.2       0 UNK         0.4909 
      3 O         -80.4569   22.6127  -73.5233 O.2       0 UNK        -0.5240 
      4 N         -80.1948   23.9498  -71.7206 N.am      1 UNK        -0.4739 
      5 CA        -81.0870   25.0447  -72.1206 C.3       1 UNK         0.0864 
      6 C6        -81.2538   26.1121  -71.0033 C.3       11 UNK        -0.0881 
      7 S7        -79.7011   26.6191  -70.1734 S.3       11 UNK        -0.2682 
      8 C8        -80.0462   28.3518  -69.7345 C.3       11 UNK         0.0289 
      9 C9        -79.2777   29.3264  -70.6157 C.ar      11 UNK        -0.0687 
     10 C10       -79.8009   29.7395  -71.8449 C.ar      11 UNK        -0.0823 
     11 C11       -79.1143   30.6721  -72.6312 C.ar      11 UNK        -0.0830 
     12 C12       -77.8925   31.1829  -72.1833 C.ar      11 UNK        -0.1021 
     13 C13       -77.3525   30.7679  -70.9633 C.ar      11 UNK        -0.0753 
     14 C14       -78.0525   29.8431  -70.1822 C.ar      11 UNK        -0.0933 
     15 C15       -76.0255   31.3388  -70.4801 C.3       11 UNK         0.0166 
     16 S16       -74.7375   30.0617  -70.3235 S.3       11 UNK        -0.2615 
     17 C17       -74.5934   29.4539  -72.0396 C.3       11 UNK        -0.0865 
     18 CA        -73.1293   29.1713  -72.4663 C.3       10 UNK         0.0862 
     19 C         -72.5303   27.9524  -71.7127 C.2       10 UNK         0.5551 
     20 N         -72.8365   26.7321  -72.1362 N.am      10 UNK        -0.7319 
     21 O         -71.7767   28.1141  -70.7559 O.2       10 UNK        -0.5018 
     22 N         -73.0374   28.9860  -73.9200 N.am      10 UNK        -0.4509 
     23 C         -71.9664   29.2870  -74.6620 C.2       10 UNK         0.4899 
     24 O         -70.9870   29.9035  -74.2377 O.2       10 UNK        -0.4839 
     25 CA        -72.0056   28.7992  -76.1231 C.3       9 UNK         0.0222 
     26 CB        -70.7476   29.1889  -76.9292 C.3       9 UNK        -0.1966 
     27 N         -72.2686   27.3570  -76.2233 N.am      9 UNK        -0.4218 
     28 C         -71.5095   26.3545  -75.7503 C.2       9 UNK         0.5020 
     29 O         -70.4465   26.5188  -75.1500 O.2       9 UNK        -0.5274 
     30 CA        -71.9996   24.9130  -75.9902 C.3       8 UNK         0.0270 
     31 CB        -72.4382   24.2517  -74.6762 C.3       8 UNK        -0.1976 
     32 N         -73.0791   24.8151  -76.9808 N.am      8 UNK        -0.4313 
     33 C         -72.8583   24.7961  -78.3027 C.2       8 UNK         0.5041 
     34 O         -71.7395   24.8706  -78.8129 O.2       8 UNK        -0.5577 
     35 CA        -74.0862   24.6825  -79.2119 C.3       7 UNK         0.0284 
     36 CB        -74.6185   23.2395  -79.2553 C.3       7 UNK        -0.1958 
     37 N         -75.1497   25.6103  -78.8177 N.am      7 UNK        -0.4454 
     38 C         -75.1977   26.8838  -79.2326 C.2       7 UNK         0.5089 
     39 O         -74.3006   27.4274  -79.8776 O.2       7 UNK        -0.5125 
     40 CA        -76.4770   27.6743  -78.9315 C.3       6 UNK         0.0408 
     41 CB        -77.6331   27.1831  -79.8185 C.3       6 UNK        -0.1791 
     42 N         -76.8820   27.6252  -77.5278 N.am      6 UNK        -0.4762 
     43 C         -76.3914   28.4387  -76.5817 C.2       6 UNK         0.5007 
     44 O         -75.4278   29.1849  -76.7524 O.2       6 UNK        -0.5032 
     45 CA        -77.1171   28.4362  -75.2212 C.3       5 UNK         0.0783 
     46 C46       -78.5661   28.9758  -75.3489 C.3       11 UNK        -0.0857 
     47 S47       -78.6270   30.7961  -75.3780 S.3       11 UNK        -0.2512 
     48 C48       -79.7055   31.1513  -73.9515 C.3       11 UNK         0.0225 
     49 N         -77.0958   27.1195  -74.5922 N.am      5 UNK        -0.4615 
     50 C         -76.0052   26.4380  -74.2250 C.2       4 UNK         0.5053 
     51 O         -74.8550   26.8646  -74.3187 O.2       4 UNK        -0.5105 
     52 CA        -76.2434   25.0171  -73.6939 C.3       4 UNK         0.0263 
     53 CB        -76.6283   25.0404  -72.2071 C.3       4 UNK        -0.1981 
     54 N         -77.2581   24.3160  -74.4813 N.am      4 UNK        -0.4224 
     55 C         -77.0890   23.9680  -75.7657 C.2       3 UNK         0.4895 
     56 O         -76.0384   24.1378  -76.3867 O.2       3 UNK        -0.5091 
     57 CA        -78.3090   23.3808  -76.4913 C.3       3 UNK         0.0250 
     58 CB        -78.4126   21.8677  -76.2460 C.3       3 UNK        -0.1996 
     59 N         -79.5568   24.0428  -76.0973 N.am      3 UNK        -0.4254 
     60 C         -79.8782   25.2935  -76.4641 C.2       2 UNK         0.5004 
     61 O         -79.1783   25.9858  -77.2016 O.2       2 UNK        -0.5226 
     62 CA        -81.1673   25.9010  -75.8821 C.3       2 UNK         0.0269 
     63 CB        -82.3662   25.5887  -76.7908 C.3       2 UNK        -0.1926 
     64 N         -81.4626   25.4669  -74.5131 N.am      2 UNK        -0.4687 
     65 C         -80.6517   25.6628  -73.4641 C.2       1 UNK         0.5165 
     66 O         -79.5750   26.2523  -73.5447 O.2       1 UNK        -0.5079 
     67 H67       -79.3928   20.8816  -71.7344 H         1 UNK         0.0900 
     68 H68       -78.0770   21.7568  -72.5219 H         1 UNK         0.0900 
     69 H69       -78.5616   22.1819  -70.8785 H         1 UNK         0.0900 
     70 H70       -79.7088   24.1071  -70.8486 H         1 UNK         0.2959 
     71 H71       -82.0705   24.5958  -72.2760 H         1 UNK         0.1079 
     72 H72       -81.7710   26.9910  -71.3930 H         1 UNK         0.0837 
     73 H73       -81.9098   25.7130  -70.2282 H         1 UNK         0.0837 
     74 H74       -81.1160   28.5582  -69.7872 H         1 UNK         0.0685 
     75 H75       -79.7689   28.5017  -68.6900 H         1 UNK         0.0685 
     76 H76       -80.7481   29.3410  -72.1812 H         1 UNK         0.1434 
     77 H77       -77.3641   31.9065  -72.7892 H         1 UNK         0.1329 
     78 H78       -77.6407   29.5274  -69.2332 H         1 UNK         0.1335 
     79 H79       -76.1747   31.8092  -69.5073 H         1 UNK         0.0680 
     80 H80       -75.6687   32.1240  -71.1486 H         1 UNK         0.0680 
     81 H81       -75.2176   28.5653  -72.1479 H         1 UNK         0.1032 
     82 H82       -75.0224   30.2024  -72.7072 H         1 UNK         0.1032 
     83 H83       -72.5373   30.0483  -72.1960 H         1 UNK         0.0461 
     84 H84       -73.4589   26.6195  -72.9265 H         1 UNK         0.3453 
     85 H85       -72.4494   25.9308  -71.6652 H         1 UNK         0.3453 
     86 H86       -73.7546   28.3928  -74.3284 H         1 UNK         0.2984 
     87 H87       -72.8509   29.3013  -76.5925 H         1 UNK         0.0554 
     88 H88       -70.6152   30.2713  -76.9437 H         1 UNK         0.0847 
     89 H89       -70.8231   28.8581  -77.9651 H         1 UNK         0.0847 
     90 H90       -69.8402   28.7581  -76.5049 H         1 UNK         0.0847 
     91 H91       -73.1391   27.1034  -76.6685 H         1 UNK         0.3141 
     92 H92       -71.1424   24.3462  -76.3607 H         1 UNK         0.0743 
     93 H93       -73.1984   24.8395  -74.1715 H         1 UNK         0.0784 
     94 H94       -72.8325   23.2486  -74.8398 H         1 UNK         0.0784 
     95 H95       -71.5958   24.1631  -73.9889 H         1 UNK         0.0784 
     96 H96       -74.0317   24.7167  -76.6415 H         1 UNK         0.3213 
     97 H97       -73.7657   24.9317  -80.2265 H         1 UNK         0.0855 
     98 H98       -74.8943   22.8666  -78.2697 H         1 UNK         0.0814 
     99 H99       -73.8600   22.5628  -79.6510 H         1 UNK         0.0814 
    100 H100      -75.4923   23.1577  -79.9018 H         1 UNK         0.0814 
    101 H101      -75.8784   25.2480  -78.2142 H         1 UNK         0.3105 
    102 H102      -76.2893   28.7170  -79.1984 H         1 UNK         0.0547 
    103 H103      -77.3710   27.2509  -80.8751 H         1 UNK         0.0837 
    104 H104      -77.8915   26.1435  -79.6133 H         1 UNK         0.0837 
    105 H105      -78.5301   27.7838  -79.6680 H         1 UNK         0.0837 
    106 H106      -77.6761   27.0253  -77.3061 H         1 UNK         0.3020 
    107 H107      -76.5609   29.0980  -74.5537 H         1 UNK         0.1245 
    108 H108      -79.1659   28.6310  -74.5070 H         1 UNK         0.0781 
    109 H109      -79.0739   28.5911  -76.2347 H         1 UNK         0.0781 
    110 H110      -80.6843   30.7025  -74.1280 H         1 UNK         0.0836 
    111 H111      -79.8696   32.2282  -73.8945 H         1 UNK         0.0836 
    112 H112      -78.0038   26.7088  -74.3862 H         1 UNK         0.3022 
    113 H113      -75.3161   24.4536  -73.7862 H         1 UNK         0.0747 
    114 H114      -76.7460   24.0325  -71.8104 H         1 UNK         0.0793 
    115 H115      -75.8552   25.5320  -71.6148 H         1 UNK         0.0793 
    116 H116      -77.5575   25.5820  -72.0339 H         1 UNK         0.0793 
    117 H117      -78.1730   24.2125  -74.0679 H         1 UNK         0.3047 
    118 H118      -78.1627   23.5384  -77.5624 H         1 UNK         0.0822 
    119 H119      -79.2486   21.4337  -76.7946 H         1 UNK         0.0807 
    120 H120      -78.5476   21.6334  -75.1899 H         1 UNK         0.0807 
    121 H121      -77.5074   21.3579  -76.5789 H         1 UNK         0.0807 
    122 H122      -80.1567   23.5495  -75.4445 H         1 UNK         0.2946 
    123 H123      -81.0295   26.9842  -75.8597 H         1 UNK         0.1144 
    124 H124      -83.2679   26.0966  -76.4479 H         1 UNK         0.0793 
    125 H125      -82.5760   24.5191  -76.8305 H         1 UNK         0.0793 
    126 H126      -82.1780   25.9223  -77.8125 H         1 UNK         0.0793 
    127 H127      -82.3137   24.9389  -74.3814 H         1 UNK         0.2896 
@<TRIPOS>BOND
     1    1    2 1    
     2    1   67 1    
     3    1   68 1    
     4    1   69 1    
     5    2    3 2    
     6    2    4 am   BACKBONE|DICT|INTERRES
     7    4    5 1    
     8    4   70 1    
     9    5    6 1    
    10    5   65 1    
    11    5   71 1    
    12    6    7 1    
    13    6   72 1    
    14    6   73 1    
    15    7    8 1    
    16    8    9 1    
    17    8   74 1    
    18    8   75 1    
    19    9   10 ar   
    20    9   14 ar   
    21   10   11 ar   
    22   10   76 1    
    23   11   12 ar   
    24   11   48 1    
    25   12   13 ar   
    26   12   77 1    
    27   13   14 ar   
    28   13   15 1    
    29   14   78 1    
    30   15   16 1    
    31   15   79 1    
    32   15   80 1    
    33   16   17 1    
    34   17   18 1    
    35   17   81 1    
    36   17   82 1    
    37   18   19 1    
    38   18   22 1    
    39   18   83 1    
    40   19   20 am   BACKBONE|DICT|INTERRES
    41   19   21 2    
    42   20   84 1    
    43   20   85 1    
    44   22   23 am   BACKBONE|DICT|INTERRES
    45   22   86 1    
    46   23   24 2    
    47   23   25 1    
    48   25   26 1    
    49   25   27 1    
    50   25   87 1    
    51   26   88 1    
    52   26   89 1    
    53   26   90 1    
    54   27   28 am   BACKBONE|DICT|INTERRES
    55   27   91 1    
    56   28   29 2    
    57   28   30 1    
    58   30   31 1    
    59   30   32 1    
    60   30   92 1    
    61   31   93 1    
    62   31   94 1    
    63   31   95 1    
    64   32   33 am   BACKBONE|DICT|INTERRES
    65   32   96 1    
    66   33   34 2    
    67   33   35 1    
    68   35   36 1    
    69   35   37 1    
    70   35   97 1    
    71   36   98 1    
    72   36   99 1    
    73   36  100 1    
    74   37   38 am   BACKBONE|DICT|INTERRES
    75   37  101 1    
    76   38   39 2    
    77   38   40 1    
    78   40   41 1    
    79   40   42 1    
    80   40  102 1    
    81   41  103 1    
    82   41  104 1    
    83   41  105 1    
    84   42   43 am   BACKBONE|DICT|INTERRES
    85   42  106 1    
    86   43   44 2    
    87   43   45 1    
    88   45   46 1    
    89   45   49 1    
    90   45  107 1    
    91   46   47 1    
    92   46  108 1    
    93   46  109 1    
    94   47   48 1    
    95   48  110 1    
    96   48  111 1    
    97   49   50 am   BACKBONE|DICT|INTERRES
    98   49  112 1    
    99   50   51 2    
   100   50   52 1    
   101   52   53 1    
   102   52   54 1    
   103   52  113 1    
   104   53  114 1    
   105   53  115 1    
   106   53  116 1    
   107   54   55 am   BACKBONE|DICT|INTERRES
   108   54  117 1    
   109   55   56 2    
   110   55   57 1    
   111   57   58 1    
   112   57   59 1    
   113   57  118 1    
   114   58  119 1    
   115   58  120 1    
   116   58  121 1    
   117   59   60 am   BACKBONE|DICT|INTERRES
   118   59  122 1    
   119   60   61 2    
   120   60   62 1    
   121   62   63 1    
   122   62   64 1    
   123   62  123 1    
   124   63  124 1    
   125   63  125 1    
   126   63  126 1    
   127   64   65 am   BACKBONE|DICT|INTERRES
   128   64  127 1    
   129   65   66 2    
@<TRIPOS>SUBSTRUCTURE
     1 UNK         1 GROUP             0       ****    0 ROOT    
