@<TRIPOS>MOLECULE
3R135
127   129    1
SMALL
USER_CHARGES


@<TRIPOS>ATOM
      1 CA        -83.4190   23.6432  -72.3497 C.3       0 UNK        -0.1998 
      2 C         -83.0806   25.1263  -72.3151 C.2       0 UNK         0.4909 
      3 O         -83.8101   25.9089  -71.7057 O.2       0 UNK        -0.5240 
      4 N         -81.9795   25.5145  -72.9646 N.am      1 UNK        -0.4739 
      5 CA        -81.5033   26.8914  -73.0846 C.3       1 UNK         0.0864 
      6 C6        -80.7647   27.3663  -71.8026 C.3       11 UNK        -0.0881 
      7 S7        -80.6453   29.1833  -71.6600 S.3       11 UNK        -0.2682 
      8 C8        -79.3242   29.3712  -70.4184 C.3       11 UNK         0.0289 
      9 C9        -77.9739   28.9161  -70.9530 C.ar      11 UNK        -0.0687 
     10 C10       -77.4813   27.6484  -70.6305 C.ar      11 UNK        -0.0823 
     11 C11       -76.2734   27.1936  -71.1689 C.ar      11 UNK        -0.0830 
     12 C12       -75.5292   28.0476  -71.9889 C.ar      11 UNK        -0.1021 
     13 C13       -75.9865   29.3362  -72.2808 C.ar      11 UNK        -0.0753 
     14 C14       -77.2184   29.7593  -71.7726 C.ar      11 UNK        -0.0933 
     15 C15       -75.1430   30.2786  -73.1265 C.3       11 UNK         0.0166 
     16 S16       -75.3460   29.9474  -74.9004 S.3       11 UNK        -0.2615 
     17 C17       -74.5168   31.4018  -75.6268 C.3       11 UNK        -0.0865 
     18 CA        -73.2490   31.0320  -76.4494 C.3       10 UNK         0.0862 
     19 C         -72.7414   32.2094  -77.3397 C.2       10 UNK         0.5551 
     20 N         -71.4493   32.3071  -77.6295 N.am      10 UNK        -0.7319 
     21 O         -73.5289   33.0305  -77.8041 O.2       10 UNK        -0.5018 
     22 N         -72.1978   30.3737  -75.6503 N.am      10 UNK        -0.4509 
     23 C         -71.4900   30.9208  -74.6498 C.2       10 UNK         0.4899 
     24 O         -71.6908   32.0537  -74.2096 O.2       10 UNK        -0.4839 
     25 CA        -70.3295   30.0772  -74.0782 C.3       9 UNK         0.0222 
     26 CB        -69.9030   30.5102  -72.6580 C.3       9 UNK        -0.1966 
     27 N         -70.5738   28.6318  -74.1642 N.am      9 UNK        -0.4218 
     28 C         -71.4840   27.9227  -73.4825 C.2       9 UNK         0.5020 
     29 O         -72.1668   28.3678  -72.5605 O.2       9 UNK        -0.5274 
     30 CA        -71.6941   26.4712  -73.9489 C.3       8 UNK         0.0270 
     31 CB        -71.8415   25.5048  -72.7610 C.3       8 UNK        -0.1976 
     32 N         -72.8724   26.3563  -74.8113 N.am      8 UNK        -0.4313 
     33 C         -73.0163   26.9394  -76.0113 C.2       8 UNK         0.5041 
     34 O         -72.1499   27.6461  -76.5331 O.2       8 UNK        -0.5577 
     35 CA        -74.3421   26.6784  -76.7546 C.3       7 UNK         0.0284 
     36 CB        -74.2726   27.0293  -78.2553 C.3       7 UNK        -0.1958 
     37 N         -74.8578   25.3181  -76.5627 N.am      7 UNK        -0.4454 
     38 C         -74.2302   24.1612  -76.8298 C.2       7 UNK         0.5089 
     39 O         -73.1162   24.0939  -77.3512 O.2       7 UNK        -0.5125 
     40 CA        -74.9607   22.8522  -76.4644 C.3       6 UNK         0.0408 
     41 CB        -73.9967   21.7905  -75.8937 C.3       6 UNK        -0.1791 
     42 N         -76.1261   23.0228  -75.5869 N.am      6 UNK        -0.4762 
     43 C         -76.1584   23.4628  -74.3160 C.2       6 UNK         0.5007 
     44 O         -75.1494   23.8138  -73.7030 O.2       6 UNK        -0.5032 
     45 CA        -77.5540   23.5625  -73.6477 C.3       5 UNK         0.0783 
     46 C46       -77.6876   24.7813  -72.7017 C.3       11 UNK        -0.0857 
     47 S47       -77.0545   24.4931  -71.0163 S.3       11 UNK        -0.2512 
     48 C48       -75.7653   25.7819  -70.8808 C.3       11 UNK         0.0225 
     49 N         -78.5913   23.6335  -74.6786 N.am      5 UNK        -0.4615 
     50 C         -79.4254   22.6562  -75.0514 C.2       4 UNK         0.5053 
     51 O         -79.5025   21.5702  -74.4791 O.2       4 UNK        -0.5105 
     52 CA        -80.3016   22.9223  -76.2929 C.3       4 UNK         0.0263 
     53 CB        -81.7893   23.0267  -75.9187 C.3       4 UNK        -0.1981 
     54 N         -79.8926   24.1230  -77.0348 N.am      4 UNK        -0.4224 
     55 C         -78.8209   24.1730  -77.8421 C.2       3 UNK         0.4895 
     56 O         -78.1179   23.1945  -78.0942 O.2       3 UNK        -0.5091 
     57 CA        -78.4215   25.5429  -78.4215 C.3       3 UNK         0.0250 
     58 CB        -79.0581   25.7479  -79.8047 C.3       3 UNK        -0.1996 
     59 N         -78.7502   26.6843  -77.5609 N.am      3 UNK        -0.4254 
     60 C         -78.2790   26.8821  -76.3215 C.2       2 UNK         0.5004 
     61 O         -77.5105   26.1021  -75.7600 O.2       2 UNK        -0.5226 
     62 CA        -78.7680   28.1282  -75.5583 C.3       2 UNK         0.0269 
     63 CB        -79.4667   29.1762  -76.4518 C.3       2 UNK        -0.1926 
     64 N         -79.6269   27.7975  -74.4140 N.am      2 UNK        -0.4687 
     65 C         -80.7046   26.9993  -74.4021 C.2       1 UNK         0.5165 
     66 O         -81.0854   26.3569  -75.3852 O.2       1 UNK        -0.5079 
     67 H67       -84.3302   23.4797  -72.9245 H         1 UNK         0.0900 
     68 H68       -82.6211   23.0524  -72.7994 H         1 UNK         0.0900 
     69 H69       -83.5824   23.2718  -71.3384 H         1 UNK         0.0900 
     70 H70       -81.4484   24.8431  -73.5005 H         1 UNK         0.2959 
     71 H71       -82.3791   27.5285  -73.2282 H         1 UNK         0.1079 
     72 H72       -79.7807   26.9067  -71.7433 H         1 UNK         0.0837 
     73 H73       -81.2995   27.0231  -70.9156 H         1 UNK         0.0837 
     74 H74       -79.2642   30.4197  -70.1231 H         1 UNK         0.0685 
     75 H75       -79.5917   28.8158  -69.5179 H         1 UNK         0.0685 
     76 H76       -78.0584   26.9981  -69.9874 H         1 UNK         0.1434 
     77 H77       -74.5893   27.7122  -72.4028 H         1 UNK         0.1329 
     78 H78       -77.5898   30.7465  -72.0119 H         1 UNK         0.1335 
     79 H79       -74.0900   30.1828  -72.8594 H         1 UNK         0.0680 
     80 H80       -75.4200   31.3127  -72.9163 H         1 UNK         0.0680 
     81 H81       -75.2570   31.8878  -76.2647 H         1 UNK         0.1032 
     82 H82       -74.2729   32.1316  -74.8538 H         1 UNK         0.1032 
     83 H83       -73.5573   30.2764  -77.1726 H         1 UNK         0.0461 
     84 H84       -70.7944   31.6300  -77.2732 H         1 UNK         0.3453 
     85 H85       -71.1291   33.0633  -78.2138 H         1 UNK         0.3453 
     86 H86       -71.9853   29.4205  -75.9370 H         1 UNK         0.2984 
     87 H87       -69.4804   30.2670  -74.7361 H         1 UNK         0.0554 
     88 H88       -69.5445   31.5402  -72.6567 H         1 UNK         0.0847 
     89 H89       -69.0944   29.8868  -72.2770 H         1 UNK         0.0847 
     90 H90       -70.7305   30.4588  -71.9500 H         1 UNK         0.0847 
     91 H91       -70.1050   28.1629  -74.9283 H         1 UNK         0.3141 
     92 H92       -70.8234   26.1567  -74.5283 H         1 UNK         0.0743 
     93 H93       -72.6997   25.7559  -72.1382 H         1 UNK         0.0784 
     94 H94       -71.9629   24.4749  -73.0977 H         1 UNK         0.0784 
     95 H95       -70.9576   25.5369  -72.1227 H         1 UNK         0.0784 
     96 H96       -73.6319   25.7847  -74.4656 H         1 UNK         0.3213 
     97 H97       -75.0744   27.3441  -76.2976 H         1 UNK         0.0855 
     98 H98       -73.5292   26.4256  -78.7765 H         1 UNK         0.0814 
     99 H99       -74.0015   28.0755  -78.4004 H         1 UNK         0.0814 
    100 H100      -75.2344   26.8763  -78.7439 H         1 UNK         0.0814 
    101 H101      -75.7837   25.2743  -76.1449 H         1 UNK         0.3105 
    102 H102      -75.3560   22.4636  -77.4039 H         1 UNK         0.0547 
    103 H103      -74.5207   20.8659  -75.6524 H         1 UNK         0.0837 
    104 H104      -73.4973   22.1403  -74.9896 H         1 UNK         0.0837 
    105 H105      -73.2182   21.5391  -76.6149 H         1 UNK         0.0837 
    106 H106      -77.0127   22.8061  -76.0241 H         1 UNK         0.3020 
    107 H107      -77.6867   22.6488  -73.0640 H         1 UNK         0.1245 
    108 H108      -78.7420   25.0264  -72.5750 H         1 UNK         0.0781 
    109 H109      -77.2369   25.6704  -73.1454 H         1 UNK         0.0781 
    110 H110      -74.9576   25.5213  -71.5648 H         1 UNK         0.0836 
    111 H111      -75.3416   25.7564  -69.8763 H         1 UNK         0.0836 
    112 H112      -78.5632   24.4861  -75.2285 H         1 UNK         0.3022 
    113 H113      -80.1885   22.0564  -76.9491 H         1 UNK         0.0747 
    114 H114      -82.4130   23.1098  -76.8089 H         1 UNK         0.0793 
    115 H115      -82.1207   22.1402  -75.3760 H         1 UNK         0.0793 
    116 H116      -81.9948   23.8905  -75.2899 H         1 UNK         0.0793 
    117 H117      -80.3926   24.9810  -76.8224 H         1 UNK         0.3047 
    118 H118      -77.3366   25.5318  -78.5448 H         1 UNK         0.0822 
    119 H119      -78.7007   26.6644  -80.2747 H         1 UNK         0.0807 
    120 H120      -80.1459   25.8016  -79.7450 H         1 UNK         0.0807 
    121 H121      -78.8085   24.9243  -80.4754 H         1 UNK         0.0807 
    122 H122      -79.4030   27.3587  -77.9331 H         1 UNK         0.2946 
    123 H123      -77.8721   28.5892  -75.1428 H         1 UNK         0.1144 
    124 H124      -79.6814   30.0835  -75.8868 H         1 UNK         0.0793 
    125 H125      -80.4125   28.8120  -76.8547 H         1 UNK         0.0793 
    126 H126      -78.8324   29.4699  -77.2895 H         1 UNK         0.0793 
    127 H127      -79.3917   28.2653  -73.5474 H         1 UNK         0.2896 
@<TRIPOS>BOND
     1    1    2 1    
     2    1   67 1    
     3    1   68 1    
     4    1   69 1    
     5    2    3 2    
     6    2    4 am   BACKBONE|DICT|INTERRES
     7    4    5 1    
     8    4   70 1    
     9    5    6 1    
    10    5   65 1    
    11    5   71 1    
    12    6    7 1    
    13    6   72 1    
    14    6   73 1    
    15    7    8 1    
    16    8    9 1    
    17    8   74 1    
    18    8   75 1    
    19    9   10 ar   
    20    9   14 ar   
    21   10   11 ar   
    22   10   76 1    
    23   11   12 ar   
    24   11   48 1    
    25   12   13 ar   
    26   12   77 1    
    27   13   14 ar   
    28   13   15 1    
    29   14   78 1    
    30   15   16 1    
    31   15   79 1    
    32   15   80 1    
    33   16   17 1    
    34   17   18 1    
    35   17   81 1    
    36   17   82 1    
    37   18   19 1    
    38   18   22 1    
    39   18   83 1    
    40   19   20 am   BACKBONE|DICT|INTERRES
    41   19   21 2    
    42   20   84 1    
    43   20   85 1    
    44   22   23 am   BACKBONE|DICT|INTERRES
    45   22   86 1    
    46   23   24 2    
    47   23   25 1    
    48   25   26 1    
    49   25   27 1    
    50   25   87 1    
    51   26   88 1    
    52   26   89 1    
    53   26   90 1    
    54   27   28 am   BACKBONE|DICT|INTERRES
    55   27   91 1    
    56   28   29 2    
    57   28   30 1    
    58   30   31 1    
    59   30   32 1    
    60   30   92 1    
    61   31   93 1    
    62   31   94 1    
    63   31   95 1    
    64   32   33 am   BACKBONE|DICT|INTERRES
    65   32   96 1    
    66   33   34 2    
    67   33   35 1    
    68   35   36 1    
    69   35   37 1    
    70   35   97 1    
    71   36   98 1    
    72   36   99 1    
    73   36  100 1    
    74   37   38 am   BACKBONE|DICT|INTERRES
    75   37  101 1    
    76   38   39 2    
    77   38   40 1    
    78   40   41 1    
    79   40   42 1    
    80   40  102 1    
    81   41  103 1    
    82   41  104 1    
    83   41  105 1    
    84   42   43 am   BACKBONE|DICT|INTERRES
    85   42  106 1    
    86   43   44 2    
    87   43   45 1    
    88   45   46 1    
    89   45   49 1    
    90   45  107 1    
    91   46   47 1    
    92   46  108 1    
    93   46  109 1    
    94   47   48 1    
    95   48  110 1    
    96   48  111 1    
    97   49   50 am   BACKBONE|DICT|INTERRES
    98   49  112 1    
    99   50   51 2    
   100   50   52 1    
   101   52   53 1    
   102   52   54 1    
   103   52  113 1    
   104   53  114 1    
   105   53  115 1    
   106   53  116 1    
   107   54   55 am   BACKBONE|DICT|INTERRES
   108   54  117 1    
   109   55   56 2    
   110   55   57 1    
   111   57   58 1    
   112   57   59 1    
   113   57  118 1    
   114   58  119 1    
   115   58  120 1    
   116   58  121 1    
   117   59   60 am   BACKBONE|DICT|INTERRES
   118   59  122 1    
   119   60   61 2    
   120   60   62 1    
   121   62   63 1    
   122   62   64 1    
   123   62  123 1    
   124   63  124 1    
   125   63  125 1    
   126   63  126 1    
   127   64   65 am   BACKBONE|DICT|INTERRES
   128   64  127 1    
   129   65   66 2    
@<TRIPOS>SUBSTRUCTURE
     1 UNK         1 GROUP             0       ****    0 ROOT    
