@<TRIPOS>MOLECULE
3R135
127   129    1
SMALL
USER_CHARGES


@<TRIPOS>ATOM
      1 CA        -85.8267   26.6372  -71.1233 C.3       0 UNK        -0.1998 
      2 C         -85.1382   27.0095  -72.4279 C.2       0 UNK         0.4909 
      3 O         -85.6476   26.6866  -73.5013 O.2       0 UNK        -0.5240 
      4 N         -83.9878   27.6916  -72.3418 N.am      1 UNK        -0.4739 
      5 CA        -83.1622   28.1017  -73.4852 C.3       1 UNK         0.0864 
      6 C6        -82.1186   29.1638  -73.0505 C.3       11 UNK        -0.0881 
      7 S7        -81.4179   30.1643  -74.4105 S.3       11 UNK        -0.2682 
      8 C8        -79.9699   29.2043  -74.9684 C.3       11 UNK         0.0289 
      9 C9        -78.8289   29.1658  -73.9587 C.ar      11 UNK        -0.0687 
     10 C10       -78.8289   28.2079  -72.9440 C.ar      11 UNK        -0.0823 
     11 C11       -77.7903   28.1493  -72.0178 C.ar      11 UNK        -0.0830 
     12 C12       -76.7207   29.0363  -72.1287 C.ar      11 UNK        -0.1021 
     13 C13       -76.6553   29.9509  -73.1873 C.ar      11 UNK        -0.0753 
     14 C14       -77.7326   30.0271  -74.0806 C.ar      11 UNK        -0.0933 
     15 C15       -75.4179   30.8122  -73.4524 C.3       11 UNK         0.0166 
     16 S16       -74.3725   31.1963  -72.0031 S.3       11 UNK        -0.2615 
     17 C17       -73.3823   29.6752  -71.7638 C.3       11 UNK        -0.0865 
     18 CA        -71.9882   29.7523  -72.4384 C.3       10 UNK         0.0862 
     19 C         -70.9433   28.8296  -71.7385 C.2       10 UNK         0.5551 
     20 N         -70.1740   28.0115  -72.4472 N.am      10 UNK        -0.7319 
     21 O         -70.8127   28.8677  -70.5174 O.2       10 UNK        -0.5018 
     22 N         -72.1051   29.5177  -73.8851 N.am      10 UNK        -0.4509 
     23 C         -71.3304   30.0826  -74.8175 C.2       10 UNK         0.4899 
     24 O         -70.4873   30.9489  -74.5785 O.2       10 UNK        -0.4839 
     25 CA        -71.5236   29.5637  -76.2554 C.3       9 UNK         0.0222 
     26 CB        -70.4256   30.0485  -77.2255 C.3       9 UNK        -0.1966 
     27 N         -71.6624   28.1024  -76.3202 N.am      9 UNK        -0.4218 
     28 C         -70.7838   27.1808  -75.8896 C.2       9 UNK         0.5020 
     29 O         -69.7125   27.4660  -75.3531 O.2       9 UNK        -0.5274 
     30 CA        -71.1523   25.6889  -76.0313 C.3       8 UNK         0.0270 
     31 CB        -71.2907   25.0431  -74.6424 C.3       8 UNK        -0.1976 
     32 N         -72.3774   25.4462  -76.7965 N.am      8 UNK        -0.4313 
     33 C         -72.4935   25.5885  -78.1236 C.2       8 UNK         0.5041 
     34 O         -71.5489   25.8427  -78.8716 O.2       8 UNK        -0.5577 
     35 CA        -73.9121   25.4826  -78.7075 C.3       7 UNK         0.0284 
     36 CB        -74.2288   24.0319  -79.1035 C.3       7 UNK        -0.1958 
     37 N         -74.9487   25.9843  -77.7981 N.am      7 UNK        -0.4454 
     38 C         -75.0486   27.2515  -77.3675 C.2       7 UNK         0.5089 
     39 O         -74.2790   28.1505  -77.7037 O.2       7 UNK        -0.5125 
     40 CA        -76.1627   27.5542  -76.3533 C.3       6 UNK         0.0408 
     41 CB        -77.5337   27.5490  -77.0474 C.3       6 UNK        -0.1791 
     42 N         -76.1511   26.6040  -75.2376 N.am      6 UNK        -0.4762 
     43 C         -75.1628   26.5101  -74.3322 C.2       6 UNK         0.5007 
     44 O         -74.2090   27.2913  -74.2816 O.2       6 UNK        -0.5032 
     45 CA        -75.1790   25.2918  -73.3820 C.3       5 UNK         0.0783 
     46 C46       -75.6019   25.6199  -71.9244 C.3       11 UNK        -0.0857 
     47 S47       -77.3901   25.4583  -71.5778 S.3       11 UNK        -0.2512 
     48 C48       -77.8126   27.0999  -70.9214 C.3       11 UNK         0.0225 
     49 N         -75.9068   24.1513  -73.9452 N.am      5 UNK        -0.4615 
     50 C         -75.4518   23.3841  -74.9412 C.2       4 UNK         0.5053 
     51 O         -74.3576   23.5465  -75.4824 O.2       4 UNK        -0.5105 
     52 CA        -76.3975   22.2775  -75.4341 C.3       4 UNK         0.0263 
     53 CB        -76.5211   21.1527  -74.3929 C.3       4 UNK        -0.1981 
     54 N         -77.7315   22.7780  -75.7851 N.am      4 UNK        -0.4224 
     55 C         -77.9731   23.6467  -76.7773 C.2       3 UNK         0.4895 
     56 O         -77.0895   24.1511  -77.4681 O.2       3 UNK        -0.5091 
     57 CA        -79.4370   24.0143  -77.0724 C.3       3 UNK         0.0250 
     58 CB        -79.9919   23.1207  -78.1932 C.3       3 UNK        -0.1996 
     59 N         -80.3366   23.9556  -75.9170 N.am      3 UNK        -0.4254 
     60 C         -80.2818   24.7891  -74.8698 C.2       2 UNK         0.5004 
     61 O         -79.3793   25.6079  -74.6954 O.2       2 UNK        -0.5226 
     62 CA        -81.4165   24.6614  -73.8353 C.3       2 UNK         0.0269 
     63 CB        -80.9323   23.8779  -72.6050 C.3       2 UNK        -0.1926 
     64 N         -81.9707   25.9485  -73.3950 N.am      2 UNK        -0.4687 
     65 C         -82.5321   26.8760  -74.1888 C.2       1 UNK         0.5165 
     66 O         -82.6209   26.7676  -75.4129 O.2       1 UNK        -0.5079 
     67 H67       -85.2744   26.9928  -70.2536 H         1 UNK         0.0900 
     68 H68       -85.9214   25.5544  -71.0453 H         1 UNK         0.0900 
     69 H69       -86.8262   27.0701  -71.0899 H         1 UNK         0.0900 
     70 H70       -83.6302   27.9353  -71.4288 H         1 UNK         0.2959 
     71 H71       -83.8331   28.5718  -74.2083 H         1 UNK         0.1079 
     72 H72       -82.6136   29.8880  -72.4012 H         1 UNK         0.0837 
     73 H73       -81.3416   28.7342  -72.4243 H         1 UNK         0.0837 
     74 H74       -80.2762   28.1900  -75.2193 H         1 UNK         0.0685 
     75 H75       -79.6161   29.6430  -75.9024 H         1 UNK         0.0685 
     76 H76       -79.6267   27.4828  -72.8838 H         1 UNK         0.1434 
     77 H77       -75.9296   28.9732  -71.4004 H         1 UNK         0.1329 
     78 H78       -77.7007   30.7330  -74.8991 H         1 UNK         0.1335 
     79 H79       -75.7336   31.7638  -73.8825 H         1 UNK         0.0680 
     80 H80       -74.8094   30.3215  -74.2129 H         1 UNK         0.0680 
     81 H81       -73.2941   29.5436  -70.6838 H         1 UNK         0.1032 
     82 H82       -73.9138   28.7962  -72.1252 H         1 UNK         0.1032 
     83 H83       -71.6058   30.7626  -72.2811 H         1 UNK         0.0461 
     84 H84       -69.5035   27.4360  -71.9637 H         1 UNK         0.3453 
     85 H85       -70.2064   27.9962  -73.4596 H         1 UNK         0.3453 
     86 H86       -72.7577   28.7911  -74.1623 H         1 UNK         0.2984 
     87 H87       -72.4729   29.9755  -76.6004 H         1 UNK         0.0554 
     88 H88       -70.6048   29.6872  -78.2382 H         1 UNK         0.0847 
     89 H89       -69.4355   29.7097  -76.9187 H         1 UNK         0.0847 
     90 H90       -70.3969   31.1378  -77.2714 H         1 UNK         0.0847 
     91 H91       -72.5330   27.7818  -76.7317 H         1 UNK         0.3141 
     92 H92       -70.3276   25.1991  -76.5530 H         1 UNK         0.0743 
     93 H93       -70.3393   25.0619  -74.1093 H         1 UNK         0.0784 
     94 H94       -72.0132   25.5749  -74.0245 H         1 UNK         0.0784 
     95 H95       -71.6019   24.0004  -74.7115 H         1 UNK         0.0784 
     96 H96       -73.1957   25.1481  -76.2762 H         1 UNK         0.3213 
     97 H97       -73.9410   26.0974  -79.6096 H         1 UNK         0.0855 
     98 H98       -75.1953   23.9599  -79.6026 H         1 UNK         0.0814 
     99 H99       -74.2526   23.3725  -78.2352 H         1 UNK         0.0814 
    100 H100      -73.4783   23.6410  -79.7918 H         1 UNK         0.0814 
    101 H101      -75.6564   25.3117  -77.5057 H         1 UNK         0.3105 
    102 H102      -75.9930   28.5494  -75.9380 H         1 UNK         0.0547 
    103 H103      -77.6551   26.7042  -77.7242 H         1 UNK         0.0837 
    104 H104      -78.3447   27.5017  -76.3261 H         1 UNK         0.0837 
    105 H105      -77.6685   28.4546  -77.6394 H         1 UNK         0.0837 
    106 H106      -76.9179   25.9462  -75.1859 H         1 UNK         0.3020 
    107 H107      -74.1332   24.9854  -73.3184 H         1 UNK         0.1245 
    108 H108      -75.2394   26.6032  -71.6220 H         1 UNK         0.0781 
    109 H109      -75.1015   24.9203  -71.2533 H         1 UNK         0.0781 
    110 H110      -78.8096   27.0580  -70.4806 H         1 UNK         0.0836 
    111 H111      -77.1307   27.3600  -70.1103 H         1 UNK         0.0836 
    112 H112      -76.8266   23.9837  -73.5620 H         1 UNK         0.3022 
    113 H113      -75.9560   21.8523  -76.3382 H         1 UNK         0.0747 
    114 H114      -75.5383   20.7669  -74.1178 H         1 UNK         0.0793 
    115 H115      -77.0975   20.3138  -74.7834 H         1 UNK         0.0793 
    116 H116      -77.0053   21.4944  -73.4772 H         1 UNK         0.0793 
    117 H117      -78.5155   22.4128  -75.2650 H         1 UNK         0.3047 
    118 H118      -79.4406   25.0448  -77.4336 H         1 UNK         0.0822 
    119 H119      -79.3571   23.1668  -79.0796 H         1 UNK         0.0807 
    120 H120      -80.9899   23.4373  -78.4971 H         1 UNK         0.0807 
    121 H121      -80.0480   22.0752  -77.8873 H         1 UNK         0.0807 
    122 H122      -81.0985   23.2951  -75.9761 H         1 UNK         0.2946 
    123 H123      -82.2373   24.1054  -74.2937 H         1 UNK         0.1144 
    124 H124      -81.7494   23.6833  -71.9101 H         1 UNK         0.0793 
    125 H125      -80.1553   24.4200  -72.0655 H         1 UNK         0.0793 
    126 H126      -80.5160   22.9112  -72.8915 H         1 UNK         0.0793 
    127 H127      -81.9620   26.1200  -72.4008 H         1 UNK         0.2896 
@<TRIPOS>BOND
     1    1    2 1    
     2    1   67 1    
     3    1   68 1    
     4    1   69 1    
     5    2    3 2    
     6    2    4 am   BACKBONE|DICT|INTERRES
     7    4    5 1    
     8    4   70 1    
     9    5    6 1    
    10    5   65 1    
    11    5   71 1    
    12    6    7 1    
    13    6   72 1    
    14    6   73 1    
    15    7    8 1    
    16    8    9 1    
    17    8   74 1    
    18    8   75 1    
    19    9   10 ar   
    20    9   14 ar   
    21   10   11 ar   
    22   10   76 1    
    23   11   12 ar   
    24   11   48 1    
    25   12   13 ar   
    26   12   77 1    
    27   13   14 ar   
    28   13   15 1    
    29   14   78 1    
    30   15   16 1    
    31   15   79 1    
    32   15   80 1    
    33   16   17 1    
    34   17   18 1    
    35   17   81 1    
    36   17   82 1    
    37   18   19 1    
    38   18   22 1    
    39   18   83 1    
    40   19   20 am   BACKBONE|DICT|INTERRES
    41   19   21 2    
    42   20   84 1    
    43   20   85 1    
    44   22   23 am   BACKBONE|DICT|INTERRES
    45   22   86 1    
    46   23   24 2    
    47   23   25 1    
    48   25   26 1    
    49   25   27 1    
    50   25   87 1    
    51   26   88 1    
    52   26   89 1    
    53   26   90 1    
    54   27   28 am   BACKBONE|DICT|INTERRES
    55   27   91 1    
    56   28   29 2    
    57   28   30 1    
    58   30   31 1    
    59   30   32 1    
    60   30   92 1    
    61   31   93 1    
    62   31   94 1    
    63   31   95 1    
    64   32   33 am   BACKBONE|DICT|INTERRES
    65   32   96 1    
    66   33   34 2    
    67   33   35 1    
    68   35   36 1    
    69   35   37 1    
    70   35   97 1    
    71   36   98 1    
    72   36   99 1    
    73   36  100 1    
    74   37   38 am   BACKBONE|DICT|INTERRES
    75   37  101 1    
    76   38   39 2    
    77   38   40 1    
    78   40   41 1    
    79   40   42 1    
    80   40  102 1    
    81   41  103 1    
    82   41  104 1    
    83   41  105 1    
    84   42   43 am   BACKBONE|DICT|INTERRES
    85   42  106 1    
    86   43   44 2    
    87   43   45 1    
    88   45   46 1    
    89   45   49 1    
    90   45  107 1    
    91   46   47 1    
    92   46  108 1    
    93   46  109 1    
    94   47   48 1    
    95   48  110 1    
    96   48  111 1    
    97   49   50 am   BACKBONE|DICT|INTERRES
    98   49  112 1    
    99   50   51 2    
   100   50   52 1    
   101   52   53 1    
   102   52   54 1    
   103   52  113 1    
   104   53  114 1    
   105   53  115 1    
   106   53  116 1    
   107   54   55 am   BACKBONE|DICT|INTERRES
   108   54  117 1    
   109   55   56 2    
   110   55   57 1    
   111   57   58 1    
   112   57   59 1    
   113   57  118 1    
   114   58  119 1    
   115   58  120 1    
   116   58  121 1    
   117   59   60 am   BACKBONE|DICT|INTERRES
   118   59  122 1    
   119   60   61 2    
   120   60   62 1    
   121   62   63 1    
   122   62   64 1    
   123   62  123 1    
   124   63  124 1    
   125   63  125 1    
   126   63  126 1    
   127   64   65 am   BACKBONE|DICT|INTERRES
   128   64  127 1    
   129   65   66 2    
@<TRIPOS>SUBSTRUCTURE
     1 UNK         1 GROUP             0       ****    0 ROOT    
