@<TRIPOS>MOLECULE
3R135
127   129    1
SMALL
USER_CHARGES


@<TRIPOS>ATOM
      1 CA        -75.8551   22.0316  -74.6394 C.3       0 UNK        -0.1998 
      2 C         -76.7459   22.0603  -73.4080 C.2       0 UNK         0.4909 
      3 O         -76.8580   21.0584  -72.7020 O.2       0 UNK        -0.5240 
      4 N         -77.3839   23.2074  -73.1496 N.am      1 UNK        -0.4739 
      5 CA        -78.2749   23.4438  -72.0063 C.3       1 UNK         0.0864 
      6 C6        -78.3170   24.9534  -71.6530 C.3       11 UNK        -0.0881 
      7 S7        -78.9380   25.9930  -73.0251 S.3       11 UNK        -0.2682 
      8 C8        -79.6657   27.3992  -72.1354 C.3       11 UNK         0.0289 
      9 C9        -78.7178   28.5847  -72.1399 C.ar      11 UNK        -0.0687 
     10 C10       -78.8724   29.5944  -73.0935 C.ar      11 UNK        -0.0823 
     11 C11       -78.0041   30.6884  -73.1101 C.ar      11 UNK        -0.0830 
     12 C12       -76.9983   30.7834  -72.1463 C.ar      11 UNK        -0.1021 
     13 C13       -76.8099   29.7628  -71.2116 C.ar      11 UNK        -0.0753 
     14 C14       -77.6792   28.6671  -71.2074 C.ar      11 UNK        -0.0933 
     15 C15       -75.6599   29.8371  -70.2188 C.3       11 UNK         0.0166 
     16 S16       -74.0773   29.3590  -70.9889 S.3       11 UNK        -0.2615 
     17 C17       -73.4990   30.9288  -71.7323 C.3       11 UNK        -0.0865 
     18 CA        -73.6213   30.9802  -73.2879 C.3       10 UNK         0.0862 
     19 C         -73.2549   32.3701  -73.8943 C.2       10 UNK         0.5551 
     20 N         -73.7069   33.4633  -73.2924 N.am      10 UNK        -0.7319 
     21 O         -72.5977   32.4801  -74.9284 O.2       10 UNK        -0.5018 
     22 N         -72.9521   29.8599  -73.9629 N.am      10 UNK        -0.4509 
     23 C         -71.6458   29.5641  -73.9366 C.2       10 UNK         0.4899 
     24 O         -70.8036   30.1904  -73.2901 O.2       10 UNK        -0.4839 
     25 CA        -71.2190   28.3557  -74.7918 C.3       9 UNK         0.0222 
     26 CB        -69.8022   27.8375  -74.4644 C.3       9 UNK        -0.1966 
     27 N         -72.2123   27.2777  -74.7506 N.am      9 UNK        -0.4218 
     28 C         -72.5821   26.5333  -73.6959 C.2       9 UNK         0.5020 
     29 O         -72.0348   26.5698  -72.5933 O.2       9 UNK        -0.5274 
     30 CA        -73.7841   25.5897  -73.8995 C.3       8 UNK         0.0270 
     31 CB        -75.0449   26.2070  -73.2715 C.3       8 UNK        -0.1976 
     32 N         -74.0534   25.2863  -75.3083 N.am      8 UNK        -0.4313 
     33 C         -73.2574   24.5552  -76.1021 C.2       8 UNK         0.5041 
     34 O         -72.2592   23.9534  -75.7058 O.2       8 UNK        -0.5577 
     35 CA        -73.6108   24.5247  -77.5977 C.3       7 UNK         0.0284 
     36 CB        -74.5699   23.3681  -77.9145 C.3       7 UNK        -0.1958 
     37 N         -74.1876   25.7927  -78.0565 N.am      7 UNK        -0.4454 
     38 C         -73.4753   26.9090  -78.2664 C.2       7 UNK         0.5089 
     39 O         -72.2560   26.9810  -78.1172 O.2       7 UNK        -0.5125 
     40 CA        -74.2547   28.1664  -78.6880 C.3       6 UNK         0.0408 
     41 CB        -74.4856   28.1738  -80.2072 C.3       6 UNK        -0.1791 
     42 N         -75.5377   28.3126  -77.9961 N.am      6 UNK        -0.4762 
     43 C         -75.6711   28.5529  -76.6826 C.2       6 UNK         0.5007 
     44 O         -74.7187   28.6581  -75.9082 O.2       6 UNK        -0.5032 
     45 CA        -77.1160   28.6419  -76.1421 C.3       5 UNK         0.0783 
     46 C46       -77.7490   30.0329  -76.4156 C.3       11 UNK        -0.0857 
     47 S47       -76.9522   31.4280  -75.5457 S.3       11 UNK        -0.2512 
     48 C48       -78.1217   31.7527  -74.1873 C.3       11 UNK         0.0225 
     49 N         -77.9903   27.5828  -76.6674 N.am      5 UNK        -0.4615 
     50 C         -77.7569   26.2643  -76.6687 C.2       4 UNK         0.5053 
     51 O         -76.7427   25.7388  -76.2047 O.2       4 UNK        -0.5105 
     52 CA        -78.8535   25.3941  -77.3060 C.3       4 UNK         0.0263 
     53 CB        -78.3407   24.0022  -77.7150 C.3       4 UNK        -0.1981 
     54 N         -79.9766   25.2244  -76.3899 N.am      4 UNK        -0.4224 
     55 C         -80.9600   26.1060  -76.1724 C.2       3 UNK         0.4895 
     56 O         -81.0278   27.1935  -76.7483 O.2       3 UNK        -0.5091 
     57 CA        -82.0314   25.7404  -75.1210 C.3       3 UNK         0.0250 
     58 CB        -83.4550   25.7983  -75.7125 C.3       3 UNK        -0.1996 
     59 N         -81.7900   24.4732  -74.4070 N.am      3 UNK        -0.4254 
     60 C         -81.8561   23.2167  -74.8768 C.2       2 UNK         0.5004 
     61 O         -82.1976   22.9273  -76.0237 O.2       2 UNK        -0.5226 
     62 CA        -81.3618   22.1180  -73.9188 C.3       2 UNK         0.0269 
     63 CB        -81.3112   20.7269  -74.5791 C.3       2 UNK        -0.1926 
     64 N         -80.0192   22.4722  -73.4537 N.am      2 UNK        -0.4687 
     65 C         -79.6995   22.8776  -72.2175 C.2       1 UNK         0.5165 
     66 O         -80.4930   22.8694  -71.2756 O.2       1 UNK        -0.5079 
     67 H67       -74.8307   21.7880  -74.3591 H         1 UNK         0.0900 
     68 H68       -76.2071   21.2799  -75.3452 H         1 UNK         0.0900 
     69 H69       -75.8463   22.9964  -75.1435 H         1 UNK         0.0900 
     70 H70       -77.2628   24.0006  -73.7651 H         1 UNK         0.2959 
     71 H71       -77.8651   22.9157  -71.1422 H         1 UNK         0.1079 
     72 H72       -77.3184   25.3007  -71.3846 H         1 UNK         0.0837 
     73 H73       -78.9280   25.1089  -70.7621 H         1 UNK         0.0837 
     74 H74       -79.9263   27.1268  -71.1122 H         1 UNK         0.0685 
     75 H75       -80.6042   27.6701  -72.6206 H         1 UNK         0.0685 
     76 H76       -79.6571   29.5179  -73.8337 H         1 UNK         0.1434 
     77 H77       -76.3362   31.6368  -72.1507 H         1 UNK         0.1329 
     78 H78       -77.5433   27.8725  -70.4868 H         1 UNK         0.1335 
     79 H79       -75.5916   30.8377  -69.7899 H         1 UNK         0.0680 
     80 H80       -75.8490   29.1650  -69.3805 H         1 UNK         0.0680 
     81 H81       -72.4606   31.0776  -71.4333 H         1 UNK         0.1032 
     82 H82       -74.0476   31.7493  -71.2709 H         1 UNK         0.1032 
     83 H83       -74.6685   30.8393  -73.5471 H         1 UNK         0.0461 
     84 H84       -73.4837   34.3613  -73.6924 H         1 UNK         0.3453 
     85 H85       -74.2692   33.4178  -72.4588 H         1 UNK         0.3453 
     86 H86       -73.5526   29.3167  -74.5780 H         1 UNK         0.2984 
     87 H87       -71.2067   28.7072  -75.8246 H         1 UNK         0.0554 
     88 H88       -69.0543   28.6100  -74.6463 H         1 UNK         0.0847 
     89 H89       -69.5402   26.9805  -75.0849 H         1 UNK         0.0847 
     90 H90       -69.7091   27.5384  -73.4202 H         1 UNK         0.0847 
     91 H91       -72.7607   27.1719  -75.5938 H         1 UNK         0.3141 
     92 H92       -73.5648   24.6507  -73.3873 H         1 UNK         0.0743 
     93 H93       -75.9157   25.5735  -73.4235 H         1 UNK         0.0784 
     94 H94       -74.9207   26.3420  -72.1963 H         1 UNK         0.0784 
     95 H95       -75.2720   27.1867  -73.6929 H         1 UNK         0.0784 
     96 H96       -74.9087   25.6725  -75.7027 H         1 UNK         0.3213 
     97 H97       -72.6841   24.3507  -78.1496 H         1 UNK         0.0855 
     98 H98       -75.5211   23.4834  -77.3993 H         1 UNK         0.0814 
     99 H99       -74.1446   22.4131  -77.6027 H         1 UNK         0.0814 
    100 H100      -74.7715   23.2996  -78.9835 H         1 UNK         0.0814 
    101 H101      -75.1924   25.8353  -78.1479 H         1 UNK         0.3105 
    102 H102      -73.6410   29.0340  -78.4358 H         1 UNK         0.0547 
    103 H103      -75.1184   27.3451  -80.5270 H         1 UNK         0.0837 
    104 H104      -73.5402   28.0872  -80.7449 H         1 UNK         0.0837 
    105 H105      -74.9559   29.1017  -80.5329 H         1 UNK         0.0837 
    106 H106      -76.3739   28.2309  -78.5564 H         1 UNK         0.3020 
    107 H107      -77.0590   28.4908  -75.0617 H         1 UNK         0.1245 
    108 H108      -78.8049   30.0180  -76.1420 H         1 UNK         0.0781 
    109 H109      -77.7344   30.2535  -77.4846 H         1 UNK         0.0781 
    110 H110      -79.1408   31.8118  -74.5726 H         1 UNK         0.0836 
    111 H111      -77.9022   32.7324  -73.7601 H         1 UNK         0.0836 
    112 H112      -78.8916   27.8850  -77.0158 H         1 UNK         0.3022 
    113 H113      -79.2042   25.8968  -78.2100 H         1 UNK         0.0747 
    114 H114      -77.9536   23.4414  -76.8635 H         1 UNK         0.0793 
    115 H115      -79.1329   23.4082  -78.1715 H         1 UNK         0.0793 
    116 H116      -77.5412   24.0864  -78.4513 H         1 UNK         0.0793 
    117 H117      -79.9995   24.3677  -75.8604 H         1 UNK         0.3047 
    118 H118      -81.9678   26.5188  -74.3598 H         1 UNK         0.0822 
    119 H119      -84.2084   25.5705  -74.9586 H         1 UNK         0.0807 
    120 H120      -83.5831   25.0993  -76.5392 H         1 UNK         0.0807 
    121 H121      -83.6756   26.7944  -76.0985 H         1 UNK         0.0807 
    122 H122      -81.4565   24.5852  -73.4588 H         1 UNK         0.2946 
    123 H123      -82.0667   22.0744  -73.0851 H         1 UNK         0.1144 
    124 H124      -80.9669   19.9689  -73.8753 H         1 UNK         0.0793 
    125 H125      -80.6430   20.7106  -75.4410 H         1 UNK         0.0793 
    126 H126      -82.2998   20.4217  -74.9247 H         1 UNK         0.0793 
    127 H127      -79.2934   22.5096  -74.1543 H         1 UNK         0.2896 
@<TRIPOS>BOND
     1    1    2 1    
     2    1   67 1    
     3    1   68 1    
     4    1   69 1    
     5    2    3 2    
     6    2    4 am   BACKBONE|DICT|INTERRES
     7    4    5 1    
     8    4   70 1    
     9    5    6 1    
    10    5   65 1    
    11    5   71 1    
    12    6    7 1    
    13    6   72 1    
    14    6   73 1    
    15    7    8 1    
    16    8    9 1    
    17    8   74 1    
    18    8   75 1    
    19    9   10 ar   
    20    9   14 ar   
    21   10   11 ar   
    22   10   76 1    
    23   11   12 ar   
    24   11   48 1    
    25   12   13 ar   
    26   12   77 1    
    27   13   14 ar   
    28   13   15 1    
    29   14   78 1    
    30   15   16 1    
    31   15   79 1    
    32   15   80 1    
    33   16   17 1    
    34   17   18 1    
    35   17   81 1    
    36   17   82 1    
    37   18   19 1    
    38   18   22 1    
    39   18   83 1    
    40   19   20 am   BACKBONE|DICT|INTERRES
    41   19   21 2    
    42   20   84 1    
    43   20   85 1    
    44   22   23 am   BACKBONE|DICT|INTERRES
    45   22   86 1    
    46   23   24 2    
    47   23   25 1    
    48   25   26 1    
    49   25   27 1    
    50   25   87 1    
    51   26   88 1    
    52   26   89 1    
    53   26   90 1    
    54   27   28 am   BACKBONE|DICT|INTERRES
    55   27   91 1    
    56   28   29 2    
    57   28   30 1    
    58   30   31 1    
    59   30   32 1    
    60   30   92 1    
    61   31   93 1    
    62   31   94 1    
    63   31   95 1    
    64   32   33 am   BACKBONE|DICT|INTERRES
    65   32   96 1    
    66   33   34 2    
    67   33   35 1    
    68   35   36 1    
    69   35   37 1    
    70   35   97 1    
    71   36   98 1    
    72   36   99 1    
    73   36  100 1    
    74   37   38 am   BACKBONE|DICT|INTERRES
    75   37  101 1    
    76   38   39 2    
    77   38   40 1    
    78   40   41 1    
    79   40   42 1    
    80   40  102 1    
    81   41  103 1    
    82   41  104 1    
    83   41  105 1    
    84   42   43 am   BACKBONE|DICT|INTERRES
    85   42  106 1    
    86   43   44 2    
    87   43   45 1    
    88   45   46 1    
    89   45   49 1    
    90   45  107 1    
    91   46   47 1    
    92   46  108 1    
    93   46  109 1    
    94   47   48 1    
    95   48  110 1    
    96   48  111 1    
    97   49   50 am   BACKBONE|DICT|INTERRES
    98   49  112 1    
    99   50   51 2    
   100   50   52 1    
   101   52   53 1    
   102   52   54 1    
   103   52  113 1    
   104   53  114 1    
   105   53  115 1    
   106   53  116 1    
   107   54   55 am   BACKBONE|DICT|INTERRES
   108   54  117 1    
   109   55   56 2    
   110   55   57 1    
   111   57   58 1    
   112   57   59 1    
   113   57  118 1    
   114   58  119 1    
   115   58  120 1    
   116   58  121 1    
   117   59   60 am   BACKBONE|DICT|INTERRES
   118   59  122 1    
   119   60   61 2    
   120   60   62 1    
   121   62   63 1    
   122   62   64 1    
   123   62  123 1    
   124   63  124 1    
   125   63  125 1    
   126   63  126 1    
   127   64   65 am   BACKBONE|DICT|INTERRES
   128   64  127 1    
   129   65   66 2    
@<TRIPOS>SUBSTRUCTURE
     1 UNK         1 GROUP             0       ****    0 ROOT    
