@<TRIPOS>MOLECULE
3R135
127   129    1
SMALL
USER_CHARGES


@<TRIPOS>ATOM
      1 CA        -83.5436   27.3838  -70.5211 C.3       0 UNK        -0.1998 
      2 C         -82.5731   27.2937  -71.6885 C.2       0 UNK         0.4909 
      3 O         -81.4930   26.7240  -71.5365 O.2       0 UNK        -0.5240 
      4 N         -82.9549   27.8517  -72.8463 N.am      1 UNK        -0.4739 
      5 CA        -82.2108   27.9162  -74.1155 C.3       1 UNK         0.0864 
      6 C6        -80.8459   28.6497  -74.0174 C.3       11 UNK        -0.0881 
      7 S7        -81.0259   30.4180  -73.5812 S.3       11 UNK        -0.2682 
      8 C8        -80.4297   30.5029  -71.8565 C.3       11 UNK         0.0289 
      9 C9        -78.9727   30.0812  -71.7307 C.ar      11 UNK        -0.0687 
     10 C10       -78.6532   28.8506  -71.1495 C.ar      11 UNK        -0.0823 
     11 C11       -77.3334   28.3939  -71.1442 C.ar      11 UNK        -0.0830 
     12 C12       -76.3240   29.2048  -71.6653 C.ar      11 UNK        -0.1021 
     13 C13       -76.6234   30.4477  -72.2261 C.ar      11 UNK        -0.0753 
     14 C14       -77.9516   30.8871  -72.2488 C.ar      11 UNK        -0.0933 
     15 C15       -75.5191   31.2532  -72.8954 C.3       11 UNK         0.0166 
     16 S16       -74.2215   31.7599  -71.7217 S.3       11 UNK        -0.2615 
     17 C17       -72.8652   32.1852  -72.8762 C.3       11 UNK        -0.0865 
     18 CA        -71.6231   31.2531  -72.7864 C.3       10 UNK         0.0862 
     19 C         -70.7416   31.5659  -71.5432 C.2       10 UNK         0.5551 
     20 N         -69.9861   32.6553  -71.5827 N.am      10 UNK        -0.7319 
     21 O         -70.7501   30.8520  -70.5414 O.2       10 UNK        -0.5018 
     22 N         -71.9946   29.8341  -72.8850 N.am      10 UNK        -0.4509 
     23 C         -71.1548   28.8334  -73.1802 C.2       10 UNK         0.4899 
     24 O         -69.9863   29.0036  -73.5340 O.2       10 UNK        -0.4839 
     25 CA        -71.6833   27.3898  -73.0312 C.3       9 UNK         0.0222 
     26 CB        -73.1623   27.2886  -72.6004 C.3       9 UNK        -0.1966 
     27 N         -71.4431   26.5692  -74.2235 N.am      9 UNK        -0.4218 
     28 C         -71.8574   26.8064  -75.4774 C.2       9 UNK         0.5020 
     29 O         -72.4890   27.8072  -75.8172 O.2       9 UNK        -0.5274 
     30 CA        -71.4910   25.7625  -76.5451 C.3       8 UNK         0.0270 
     31 CB        -70.8857   24.4556  -75.9877 C.3       8 UNK        -0.1976 
     32 N         -72.6808   25.4376  -77.3306 N.am      8 UNK        -0.4313 
     33 C         -72.7261   25.3769  -78.6661 C.2       8 UNK         0.5041 
     34 O         -71.7648   25.6200  -79.3982 O.2       8 UNK        -0.5577 
     35 CA        -74.0545   24.9423  -79.3069 C.3       7 UNK         0.0284 
     36 CB        -74.1427   23.4082  -79.3566 C.3       7 UNK        -0.1958 
     37 N         -75.2424   25.4796  -78.6390 N.am      7 UNK        -0.4454 
     38 C         -75.6321   26.7612  -78.6954 C.2       7 UNK         0.5089 
     39 O         -75.0138   27.6405  -79.2964 O.2       7 UNK        -0.5125 
     40 CA        -76.9460   27.1219  -77.9793 C.3       6 UNK         0.0408 
     41 CB        -78.1618   26.7550  -78.8453 C.3       6 UNK        -0.1791 
     42 N         -77.0647   26.4731  -76.6746 N.am      6 UNK        -0.4762 
     43 C         -76.3711   26.8321  -75.5858 C.2       6 UNK         0.5007 
     44 O         -75.6325   27.8138  -75.5415 O.2       6 UNK        -0.5032 
     45 CA        -76.5278   25.9502  -74.3309 C.3       5 UNK         0.0783 
     46 C46       -77.7169   26.4418  -73.4788 C.3       11 UNK        -0.0857 
     47 S47       -77.7631   25.7069  -71.8021 S.3       11 UNK        -0.2512 
     48 C48       -77.0120   26.9720  -70.7094 C.3       11 UNK         0.0225 
     49 N         -76.6530   24.5316  -74.6689 N.am      5 UNK        -0.4615 
     50 C         -75.6953   23.7855  -75.2324 C.2       4 UNK         0.5053 
     51 O         -74.5660   24.1988  -75.4954 O.2       4 UNK        -0.5105 
     52 CA        -76.0856   22.3441  -75.6007 C.3       4 UNK         0.0263 
     53 CB        -75.9183   21.4139  -74.3890 C.3       4 UNK        -0.1981 
     54 N         -77.4569   22.2445  -76.1139 N.am      4 UNK        -0.4224 
     55 C         -77.8663   22.7806  -77.2733 C.2       3 UNK         0.4895 
     56 O         -77.1223   23.3797  -78.0480 O.2       3 UNK        -0.5091 
     57 CA        -79.3662   22.6788  -77.6007 C.3       3 UNK         0.0250 
     58 CB        -79.7015   21.2992  -78.1894 C.3       3 UNK        -0.1996 
     59 N         -80.2398   22.9563  -76.4538 N.am      3 UNK        -0.4254 
     60 C         -80.2620   24.1142  -75.7781 C.2       2 UNK         0.5004 
     61 O         -79.5182   25.0619  -76.0367 O.2       2 UNK        -0.5226 
     62 CA        -81.2384   24.1940  -74.5888 C.3       2 UNK         0.0269 
     63 CB        -80.7091   23.3641  -73.4066 C.3       2 UNK        -0.1926 
     64 N         -81.4760   25.5630  -74.1192 N.am      2 UNK        -0.4687 
     65 C         -82.0803   26.5400  -74.8071 C.2       1 UNK         0.5165 
     66 O         -82.5605   26.3833  -75.9312 O.2       1 UNK        -0.5079 
     67 H67       -83.0766   27.9065  -69.6869 H         1 UNK         0.0900 
     68 H68       -84.4560   27.9169  -70.7875 H         1 UNK         0.0900 
     69 H69       -83.8194   26.3844  -70.1857 H         1 UNK         0.0900 
     70 H70       -83.8693   28.2805  -72.8861 H         1 UNK         0.2959 
     71 H71       -82.8390   28.5118  -74.7806 H         1 UNK         0.1079 
     72 H72       -80.1867   28.1478  -73.3112 H         1 UNK         0.0837 
     73 H73       -80.3274   28.6117  -74.9776 H         1 UNK         0.0837 
     74 H74       -81.0701   29.8859  -71.2249 H         1 UNK         0.0685 
     75 H75       -80.5392   31.5263  -71.4953 H         1 UNK         0.0685 
     76 H76       -79.4394   28.2071  -70.7781 H         1 UNK         0.1434 
     77 H77       -75.3058   28.8506  -71.6831 H         1 UNK         0.1329 
     78 H78       -78.2012   31.8310  -72.7140 H         1 UNK         0.1335 
     79 H79       -75.0805   30.6383  -73.6835 H         1 UNK         0.0680 
     80 H80       -75.9234   32.1416  -73.3831 H         1 UNK         0.0680 
     81 H81       -72.5819   33.2253  -72.7042 H         1 UNK         0.1032 
     82 H82       -73.2450   32.1676  -73.8988 H         1 UNK         0.1032 
     83 H83       -71.0034   31.4705  -73.6590 H         1 UNK         0.0461 
     84 H84       -69.9675   33.2502  -72.3965 H         1 UNK         0.3453 
     85 H85       -69.4137   32.8828  -70.7846 H         1 UNK         0.3453 
     86 H86       -72.9273   29.6112  -72.5740 H         1 UNK         0.2984 
     87 H87       -71.0867   26.9398  -72.2365 H         1 UNK         0.0554 
     88 H88       -73.3145   27.7510  -71.6248 H         1 UNK         0.0847 
     89 H89       -73.4704   26.2474  -72.5048 H         1 UNK         0.0847 
     90 H90       -73.8296   27.7667  -73.3191 H         1 UNK         0.0847 
     91 H91       -70.8914   25.7369  -74.0703 H         1 UNK         0.3141 
     92 H92       -70.7411   26.2392  -77.1796 H         1 UNK         0.0743 
     93 H93       -69.9511   24.6393  -75.4563 H         1 UNK         0.0784 
     94 H94       -71.5720   23.9487  -75.3073 H         1 UNK         0.0784 
     95 H95       -70.6543   23.7600  -76.7948 H         1 UNK         0.0784 
     96 H96       -73.5153   25.2157  -76.7924 H         1 UNK         0.3213 
     97 H97       -74.0563   25.3106  -80.3352 H         1 UNK         0.0855 
     98 H98       -74.1801   22.9750  -78.3565 H         1 UNK         0.0814 
     99 H99       -73.2770   22.9824  -79.8656 H         1 UNK         0.0814 
    100 H100      -75.0303   23.0792  -79.8974 H         1 UNK         0.0814 
    101 H101      -75.8566   24.8054  -78.1886 H         1 UNK         0.3105 
    102 H102      -76.9589   28.2031  -77.8262 H         1 UNK         0.0547 
    103 H103      -78.2152   25.6832  -79.0375 H         1 UNK         0.0837 
    104 H104      -78.1177   27.2582  -79.8119 H         1 UNK         0.0837 
    105 H105      -79.0940   27.0531  -78.3650 H         1 UNK         0.0837 
    106 H106      -77.7360   25.7144  -76.5925 H         1 UNK         0.3020 
    107 H107      -75.6133   26.0711  -73.7481 H         1 UNK         0.1245 
    108 H108      -78.6589   26.1887  -73.9617 H         1 UNK         0.0781 
    109 H109      -77.7278   27.5286  -73.4367 H         1 UNK         0.0781 
    110 H110      -75.9330   26.8116  -70.6862 H         1 UNK         0.0836 
    111 H111      -77.3651   26.8159  -69.6893 H         1 UNK         0.0836 
    112 H112      -77.5599   24.1195  -74.5135 H         1 UNK         0.3022 
    113 H113      -75.4057   22.0071  -76.3859 H         1 UNK         0.0747 
    114 H114      -76.1163   20.3755  -74.6557 H         1 UNK         0.0793 
    115 H115      -74.8989   21.4585  -74.0027 H         1 UNK         0.0793 
    116 H116      -76.5882   21.6856  -73.5721 H         1 UNK         0.0793 
    117 H117      -78.1327   21.7644  -75.5377 H         1 UNK         0.3047 
    118 H118      -79.5812   23.4322  -78.3617 H         1 UNK         0.0822 
    119 H119      -80.7368   21.2532  -78.5278 H         1 UNK         0.0807 
    120 H120      -79.5489   20.4989  -77.4642 H         1 UNK         0.0807 
    121 H121      -79.0715   21.0807  -79.0531 H         1 UNK         0.0807 
    122 H122      -80.8723   22.2182  -76.1790 H         1 UNK         0.2946 
    123 H123      -82.1973   23.7836  -74.9128 H         1 UNK         0.1144 
    124 H124      -81.4022   23.3880  -72.5653 H         1 UNK         0.0793 
    125 H125      -79.7467   23.7357  -73.0533 H         1 UNK         0.0793 
    126 H126      -80.5750   22.3171  -73.6806 H         1 UNK         0.0793 
    127 H127      -81.1666   25.7914  -73.1779 H         1 UNK         0.2896 
@<TRIPOS>BOND
     1    1    2 1    
     2    1   67 1    
     3    1   68 1    
     4    1   69 1    
     5    2    3 2    
     6    2    4 am   BACKBONE|DICT|INTERRES
     7    4    5 1    
     8    4   70 1    
     9    5    6 1    
    10    5   65 1    
    11    5   71 1    
    12    6    7 1    
    13    6   72 1    
    14    6   73 1    
    15    7    8 1    
    16    8    9 1    
    17    8   74 1    
    18    8   75 1    
    19    9   10 ar   
    20    9   14 ar   
    21   10   11 ar   
    22   10   76 1    
    23   11   12 ar   
    24   11   48 1    
    25   12   13 ar   
    26   12   77 1    
    27   13   14 ar   
    28   13   15 1    
    29   14   78 1    
    30   15   16 1    
    31   15   79 1    
    32   15   80 1    
    33   16   17 1    
    34   17   18 1    
    35   17   81 1    
    36   17   82 1    
    37   18   19 1    
    38   18   22 1    
    39   18   83 1    
    40   19   20 am   BACKBONE|DICT|INTERRES
    41   19   21 2    
    42   20   84 1    
    43   20   85 1    
    44   22   23 am   BACKBONE|DICT|INTERRES
    45   22   86 1    
    46   23   24 2    
    47   23   25 1    
    48   25   26 1    
    49   25   27 1    
    50   25   87 1    
    51   26   88 1    
    52   26   89 1    
    53   26   90 1    
    54   27   28 am   BACKBONE|DICT|INTERRES
    55   27   91 1    
    56   28   29 2    
    57   28   30 1    
    58   30   31 1    
    59   30   32 1    
    60   30   92 1    
    61   31   93 1    
    62   31   94 1    
    63   31   95 1    
    64   32   33 am   BACKBONE|DICT|INTERRES
    65   32   96 1    
    66   33   34 2    
    67   33   35 1    
    68   35   36 1    
    69   35   37 1    
    70   35   97 1    
    71   36   98 1    
    72   36   99 1    
    73   36  100 1    
    74   37   38 am   BACKBONE|DICT|INTERRES
    75   37  101 1    
    76   38   39 2    
    77   38   40 1    
    78   40   41 1    
    79   40   42 1    
    80   40  102 1    
    81   41  103 1    
    82   41  104 1    
    83   41  105 1    
    84   42   43 am   BACKBONE|DICT|INTERRES
    85   42  106 1    
    86   43   44 2    
    87   43   45 1    
    88   45   46 1    
    89   45   49 1    
    90   45  107 1    
    91   46   47 1    
    92   46  108 1    
    93   46  109 1    
    94   47   48 1    
    95   48  110 1    
    96   48  111 1    
    97   49   50 am   BACKBONE|DICT|INTERRES
    98   49  112 1    
    99   50   51 2    
   100   50   52 1    
   101   52   53 1    
   102   52   54 1    
   103   52  113 1    
   104   53  114 1    
   105   53  115 1    
   106   53  116 1    
   107   54   55 am   BACKBONE|DICT|INTERRES
   108   54  117 1    
   109   55   56 2    
   110   55   57 1    
   111   57   58 1    
   112   57   59 1    
   113   57  118 1    
   114   58  119 1    
   115   58  120 1    
   116   58  121 1    
   117   59   60 am   BACKBONE|DICT|INTERRES
   118   59  122 1    
   119   60   61 2    
   120   60   62 1    
   121   62   63 1    
   122   62   64 1    
   123   62  123 1    
   124   63  124 1    
   125   63  125 1    
   126   63  126 1    
   127   64   65 am   BACKBONE|DICT|INTERRES
   128   64  127 1    
   129   65   66 2    
@<TRIPOS>SUBSTRUCTURE
     1 UNK         1 GROUP             0       ****    0 ROOT    
