@<TRIPOS>MOLECULE
3R135
127   129    1
SMALL
USER_CHARGES


@<TRIPOS>ATOM
      1 CA        -84.5271   27.4160  -70.1723 C.3       0 UNK        -0.1998 
      2 C         -84.5087   27.3336  -71.6911 C.2       0 UNK         0.4909 
      3 O         -85.3322   26.6302  -72.2769 O.2       0 UNK        -0.5240 
      4 N         -83.5761   28.0491  -72.3331 N.am      1 UNK        -0.4739 
      5 CA        -83.3804   28.0723  -73.7892 C.3       1 UNK         0.0864 
      6 C6        -82.5484   29.2999  -74.2482 C.3       11 UNK        -0.0881 
      7 S7        -81.0279   29.5917  -73.2762 S.3       11 UNK        -0.2682 
      8 C8        -79.7707   28.8809  -74.3791 C.3       11 UNK         0.0289 
      9 C9        -78.4090   28.7982  -73.7065 C.ar      11 UNK        -0.0687 
     10 C10       -78.2355   27.9873  -72.5819 C.ar      11 UNK        -0.0823 
     11 C11       -76.9750   27.8421  -71.9964 C.ar      11 UNK        -0.0830 
     12 C12       -75.8789   28.5057  -72.5528 C.ar      11 UNK        -0.1021 
     13 C13       -76.0372   29.3181  -73.6796 C.ar      11 UNK        -0.0753 
     14 C14       -77.3098   29.4790  -74.2385 C.ar      11 UNK        -0.0933 
     15 C15       -74.8253   29.9456  -74.3522 C.3       11 UNK         0.0166 
     16 S16       -74.3547   31.5399  -73.6133 S.3       11 UNK        -0.2615 
     17 C17       -73.1909   31.0105  -72.3094 C.3       11 UNK        -0.0865 
     18 CA        -71.7065   31.3197  -72.6437 C.3       10 UNK         0.0862 
     19 C         -70.8023   30.9849  -71.4192 C.2       10 UNK         0.5551 
     20 N         -69.9183   29.9972  -71.4920 N.am      10 UNK        -0.7319 
     21 O         -70.9088   31.6371  -70.3835 O.2       10 UNK        -0.5018 
     22 N         -71.2823   30.7112  -73.9202 N.am      10 UNK        -0.4509 
     23 C         -70.1623   31.0214  -74.5870 C.2       10 UNK         0.4899 
     24 O         -69.3661   31.8827  -74.2095 O.2       10 UNK        -0.4839 
     25 CA        -69.8760   30.2268  -75.8790 C.3       9 UNK         0.0222 
     26 CB        -68.4580   30.4796  -76.4266 C.3       9 UNK        -0.1966 
     27 N         -70.0598   28.7834  -75.6885 N.am      9 UNK        -0.4218 
     28 C         -71.2222   28.1352  -75.8268 C.2       9 UNK         0.5020 
     29 O         -72.2788   28.6957  -76.1210 O.2       9 UNK        -0.5274 
     30 CA        -71.2108   26.6319  -75.5087 C.3       8 UNK         0.0270 
     31 CB        -71.3924   26.4114  -73.9971 C.3       8 UNK        -0.1976 
     32 N         -72.2802   25.9351  -76.2261 N.am      8 UNK        -0.4313 
     33 C         -72.2171   25.5761  -77.5177 C.2       8 UNK         0.5041 
     34 O         -71.2065   25.7116  -78.2101 O.2       8 UNK        -0.5577 
     35 CA        -73.4753   24.9524  -78.1580 C.3       7 UNK         0.0284 
     36 CB        -73.3616   23.4199  -78.1877 C.3       7 UNK        -0.1958 
     37 N         -74.7142   25.3241  -77.4752 N.am      7 UNK        -0.4454 
     38 C         -75.2451   26.5539  -77.4701 C.2       7 UNK         0.5089 
     39 O         -74.8480   27.4654  -78.1965 O.2       7 UNK        -0.5125 
     40 CA        -76.3961   26.8336  -76.4829 C.3       6 UNK         0.0408 
     41 CB        -77.6967   27.1406  -77.2410 C.3       6 UNK        -0.1791 
     42 N         -76.6502   25.7847  -75.4850 N.am      6 UNK        -0.4762 
     43 C         -75.7821   25.3464  -74.5585 C.2       6 UNK         0.5007 
     44 O         -74.6288   25.7651  -74.4591 O.2       6 UNK        -0.5032 
     45 CA        -76.2424   24.1732  -73.6672 C.3       5 UNK         0.0783 
     46 C46       -76.9883   24.6282  -72.3913 C.3       11 UNK        -0.0857 
     47 S47       -75.8897   25.4159  -71.1660 S.3       11 UNK        -0.2512 
     48 C48       -76.7937   26.9496  -70.7769 C.3       11 UNK         0.0225 
     49 N         -77.0579   23.2334  -74.4379 N.am      5 UNK        -0.4615 
     50 C         -76.5697   22.3269  -75.2941 C.2       4 UNK         0.5053 
     51 O         -75.3679   22.1421  -75.4820 O.2       4 UNK        -0.5105 
     52 CA        -77.5960   21.4976  -76.0856 C.3       4 UNK         0.0263 
     53 CB        -77.9755   20.2270  -75.3086 C.3       4 UNK        -0.1981 
     54 N         -78.8092   22.2555  -76.4044 N.am      4 UNK        -0.4224 
     55 C         -78.8566   23.2699  -77.2801 C.2       3 UNK         0.4895 
     56 O         -77.8994   23.6243  -77.9678 O.2       3 UNK        -0.5091 
     57 CA        -80.1880   24.0345  -77.3930 C.3       3 UNK         0.0250 
     58 CB        -81.0579   23.4330  -78.5082 C.3       3 UNK        -0.1996 
     59 N         -80.9634   24.0910  -76.1478 N.am      3 UNK        -0.4254 
     60 C         -80.5554   24.6689  -75.0091 C.2       2 UNK         0.5004 
     61 O         -79.4394   25.1687  -74.8556 O.2       2 UNK        -0.5226 
     62 CA        -81.5489   24.6578  -73.8341 C.3       2 UNK         0.0269 
     63 CB        -80.8951   24.0786  -72.5678 C.3       2 UNK        -0.1926 
     64 N         -82.0830   25.9877  -73.5283 N.am      2 UNK        -0.4687 
     65 C         -82.8276   26.7425  -74.3515 C.2       1 UNK         0.5165 
     66 O         -83.1188   26.4130  -75.5021 O.2       1 UNK        -0.5079 
     67 H67       -83.7491   28.0769  -69.7903 H         1 UNK         0.0900 
     68 H68       -84.3738   26.4270  -69.7412 H         1 UNK         0.0900 
     69 H69       -85.4902   27.7923  -69.8287 H         1 UNK         0.0900 
     70 H70       -82.9256   28.6168  -71.8069 H         1 UNK         0.2959 
     71 H71       -84.3713   28.1808  -74.2371 H         1 UNK         0.1079 
     72 H72       -82.3096   29.2408  -75.3123 H         1 UNK         0.0837 
     73 H73       -83.1628   30.1957  -74.1458 H         1 UNK         0.0837 
     74 H74       -80.0717   27.8764  -74.6771 H         1 UNK         0.0685 
     75 H75       -79.7197   29.4752  -75.2927 H         1 UNK         0.0685 
     76 H76       -79.0850   27.4555  -72.1760 H         1 UNK         0.1434 
     77 H77       -74.8985   28.3534  -72.1259 H         1 UNK         0.1329 
     78 H78       -77.4325   30.0922  -75.1206 H         1 UNK         0.1335 
     79 H79       -73.9880   29.2500  -74.3053 H         1 UNK         0.0680 
     80 H80       -75.0250   30.0990  -75.4139 H         1 UNK         0.0680 
     81 H81       -73.3135   29.9478  -72.1019 H         1 UNK         0.1032 
     82 H82       -73.4863   31.5248  -71.3925 H         1 UNK         0.1032 
     83 H83       -71.6276   32.4004  -72.7777 H         1 UNK         0.0461 
     84 H84       -69.8164   29.4660  -72.3406 H         1 UNK         0.3453 
     85 H85       -69.3382   29.7933  -70.6935 H         1 UNK         0.3453 
     86 H86       -71.9007   30.0208  -74.3246 H         1 UNK         0.2984 
     87 H87       -70.5827   30.5833  -76.6315 H         1 UNK         0.0554 
     88 H88       -68.2878   29.9343  -77.3551 H         1 UNK         0.0847 
     89 H89       -67.6887   30.1789  -75.7142 H         1 UNK         0.0847 
     90 H90       -68.3046   31.5374  -76.6450 H         1 UNK         0.0847 
     91 H91       -69.2435   28.2609  -75.4024 H         1 UNK         0.3141 
     92 H92       -70.2495   26.2108  -75.8114 H         1 UNK         0.0743 
     93 H93       -72.3131   26.8675  -73.6299 H         1 UNK         0.0784 
     94 H94       -71.4261   25.3498  -73.7517 H         1 UNK         0.0784 
     95 H95       -70.5670   26.8476  -73.4333 H         1 UNK         0.0784 
     96 H96       -73.1629   25.8440  -75.7289 H         1 UNK         0.3213 
     97 H97       -73.5341   25.3132  -79.1871 H         1 UNK         0.0855 
     98 H98       -73.2930   23.0012  -77.1827 H         1 UNK         0.0814 
     99 H99       -72.4708   23.1056  -78.7333 H         1 UNK         0.0814 
    100 H100      -74.2214   22.9664  -78.6817 H         1 UNK         0.0814 
    101 H101      -75.1282   24.6319  -76.8670 H         1 UNK         0.3105 
    102 H102      -76.1056   27.7264  -75.9332 H         1 UNK         0.0547 
    103 H103      -77.5863   28.0362  -77.8534 H         1 UNK         0.0837 
    104 H104      -77.9693   26.3252  -77.9099 H         1 UNK         0.0837 
    105 H105      -78.5291   27.3136  -76.5602 H         1 UNK         0.0837 
    106 H106      -77.5979   25.4191  -75.4513 H         1 UNK         0.3020 
    107 H107      -75.3393   23.6449  -73.3510 H         1 UNK         0.1245 
    108 H108      -77.4363   23.7640  -71.8983 H         1 UNK         0.0781 
    109 H109      -77.8203   25.2825  -72.6481 H         1 UNK         0.0781 
    110 H110      -76.2451   27.4978  -70.0098 H         1 UNK         0.0836 
    111 H111      -77.7583   26.6930  -70.3358 H         1 UNK         0.0836 
    112 H112      -78.0576   23.3705  -74.3908 H         1 UNK         0.3022 
    113 H113      -77.1249   21.1969  -77.0242 H         1 UNK         0.0747 
    114 H114      -78.6464   19.5927  -75.8885 H         1 UNK         0.0793 
    115 H115      -77.0900   19.6329  -75.0780 H         1 UNK         0.0793 
    116 H116      -78.4663   20.4604  -74.3628 H         1 UNK         0.0793 
    117 H117      -79.6499   22.0163  -75.8992 H         1 UNK         0.3047 
    118 H118      -79.9502   25.0630  -77.6695 H         1 UNK         0.0822 
    119 H119      -81.9583   24.0255  -78.6727 H         1 UNK         0.0807 
    120 H120      -81.3639   22.4119  -78.2773 H         1 UNK         0.0807 
    121 H121      -80.5150   23.4046  -79.4543 H         1 UNK         0.0807 
    122 H122      -81.9037   23.7244  -76.1918 H         1 UNK         0.2946 
    123 H123      -82.3923   24.0159  -74.0980 H         1 UNK         0.1144 
    124 H124      -81.6271   23.9456  -71.7709 H         1 UNK         0.0793 
    125 H125      -80.1050   24.7266  -72.1882 H         1 UNK         0.0793 
    126 H126      -80.4518   23.1014  -72.7641 H         1 UNK         0.0793 
    127 H127      -81.8919   26.3519  -72.6069 H         1 UNK         0.2896 
@<TRIPOS>BOND
     1    1    2 1    
     2    1   67 1    
     3    1   68 1    
     4    1   69 1    
     5    2    3 2    
     6    2    4 am   BACKBONE|DICT|INTERRES
     7    4    5 1    
     8    4   70 1    
     9    5    6 1    
    10    5   65 1    
    11    5   71 1    
    12    6    7 1    
    13    6   72 1    
    14    6   73 1    
    15    7    8 1    
    16    8    9 1    
    17    8   74 1    
    18    8   75 1    
    19    9   10 ar   
    20    9   14 ar   
    21   10   11 ar   
    22   10   76 1    
    23   11   12 ar   
    24   11   48 1    
    25   12   13 ar   
    26   12   77 1    
    27   13   14 ar   
    28   13   15 1    
    29   14   78 1    
    30   15   16 1    
    31   15   79 1    
    32   15   80 1    
    33   16   17 1    
    34   17   18 1    
    35   17   81 1    
    36   17   82 1    
    37   18   19 1    
    38   18   22 1    
    39   18   83 1    
    40   19   20 am   BACKBONE|DICT|INTERRES
    41   19   21 2    
    42   20   84 1    
    43   20   85 1    
    44   22   23 am   BACKBONE|DICT|INTERRES
    45   22   86 1    
    46   23   24 2    
    47   23   25 1    
    48   25   26 1    
    49   25   27 1    
    50   25   87 1    
    51   26   88 1    
    52   26   89 1    
    53   26   90 1    
    54   27   28 am   BACKBONE|DICT|INTERRES
    55   27   91 1    
    56   28   29 2    
    57   28   30 1    
    58   30   31 1    
    59   30   32 1    
    60   30   92 1    
    61   31   93 1    
    62   31   94 1    
    63   31   95 1    
    64   32   33 am   BACKBONE|DICT|INTERRES
    65   32   96 1    
    66   33   34 2    
    67   33   35 1    
    68   35   36 1    
    69   35   37 1    
    70   35   97 1    
    71   36   98 1    
    72   36   99 1    
    73   36  100 1    
    74   37   38 am   BACKBONE|DICT|INTERRES
    75   37  101 1    
    76   38   39 2    
    77   38   40 1    
    78   40   41 1    
    79   40   42 1    
    80   40  102 1    
    81   41  103 1    
    82   41  104 1    
    83   41  105 1    
    84   42   43 am   BACKBONE|DICT|INTERRES
    85   42  106 1    
    86   43   44 2    
    87   43   45 1    
    88   45   46 1    
    89   45   49 1    
    90   45  107 1    
    91   46   47 1    
    92   46  108 1    
    93   46  109 1    
    94   47   48 1    
    95   48  110 1    
    96   48  111 1    
    97   49   50 am   BACKBONE|DICT|INTERRES
    98   49  112 1    
    99   50   51 2    
   100   50   52 1    
   101   52   53 1    
   102   52   54 1    
   103   52  113 1    
   104   53  114 1    
   105   53  115 1    
   106   53  116 1    
   107   54   55 am   BACKBONE|DICT|INTERRES
   108   54  117 1    
   109   55   56 2    
   110   55   57 1    
   111   57   58 1    
   112   57   59 1    
   113   57  118 1    
   114   58  119 1    
   115   58  120 1    
   116   58  121 1    
   117   59   60 am   BACKBONE|DICT|INTERRES
   118   59  122 1    
   119   60   61 2    
   120   60   62 1    
   121   62   63 1    
   122   62   64 1    
   123   62  123 1    
   124   63  124 1    
   125   63  125 1    
   126   63  126 1    
   127   64   65 am   BACKBONE|DICT|INTERRES
   128   64  127 1    
   129   65   66 2    
@<TRIPOS>SUBSTRUCTURE
     1 UNK         1 GROUP             0       ****    0 ROOT    
