@<TRIPOS>MOLECULE
3R135
127   129    1
SMALL
USER_CHARGES


@<TRIPOS>ATOM
      1 CA        -80.4322   29.7259  -70.1457 C.3       0 UNK        -0.1998 
      2 C         -81.4833   29.5000  -71.2192 C.2       0 UNK         0.4909 
      3 O         -82.6708   29.4282  -70.9009 O.2       0 UNK        -0.5240 
      4 N         -81.0624   29.3738  -72.4876 N.am      1 UNK        -0.4739 
      5 CA        -81.9573   29.0650  -73.6136 C.3       1 UNK         0.0864 
      6 C6        -81.3927   29.5707  -74.9732 C.3       11 UNK        -0.0881 
      7 S7        -80.2632   28.4509  -75.8804 S.3       11 UNK        -0.2682 
      8 C8        -78.6374   29.2304  -75.6412 C.3       11 UNK         0.0289 
      9 C9        -78.0892   28.9712  -74.2473 C.ar      11 UNK        -0.0687 
     10 C10       -77.7991   27.6652  -73.8452 C.ar      11 UNK        -0.0823 
     11 C11       -77.3013   27.4078  -72.5656 C.ar      11 UNK        -0.0830 
     12 C12       -77.0808   28.4746  -71.6874 C.ar      11 UNK        -0.1021 
     13 C13       -77.3732   29.7869  -72.0775 C.ar      11 UNK        -0.0753 
     14 C14       -77.8730   30.0286  -73.3605 C.ar      11 UNK        -0.0933 
     15 C15       -77.2236   30.9417  -71.0963 C.3       11 UNK         0.0166 
     16 S16       -75.8233   32.0291  -71.4956 S.3       11 UNK        -0.2615 
     17 C17       -74.4078   31.0820  -70.8417 C.3       11 UNK        -0.0865 
     18 CA        -73.3308   30.8259  -71.9262 C.3       10 UNK         0.0862 
     19 C         -72.0041   30.2986  -71.3004 C.2       10 UNK         0.5551 
     20 N         -71.4329   29.1870  -71.7486 N.am      10 UNK        -0.7319 
     21 O         -71.4706   30.9228  -70.3863 O.2       10 UNK        -0.5018 
     22 N         -73.8592   29.9973  -73.0202 N.am      10 UNK        -0.4509 
     23 C         -73.4100   30.0245  -74.2775 C.2       10 UNK         0.4899 
     24 O         -72.5751   30.8256  -74.7037 O.2       10 UNK        -0.4839 
     25 CA        -73.9789   28.9486  -75.2160 C.3       9 UNK         0.0222 
     26 CB        -74.9156   29.5734  -76.2610 C.3       9 UNK        -0.1966 
     27 N         -72.9184   28.1991  -75.8965 N.am      9 UNK        -0.4218 
     28 C         -71.9126   27.5426  -75.2973 C.2       9 UNK         0.5020 
     29 O         -71.8023   27.4450  -74.0733 O.2       9 UNK        -0.5274 
     30 CA        -70.8630   26.8772  -76.2079 C.3       8 UNK         0.0270 
     31 CB        -70.1338   25.7146  -75.5074 C.3       8 UNK        -0.1976 
     32 N         -71.4569   26.3850  -77.4532 N.am      8 UNK        -0.4313 
     33 C         -71.4684   27.0499  -78.6171 C.2       8 UNK         0.5041 
     34 O         -70.9797   28.1709  -78.7602 O.2       8 UNK        -0.5577 
     35 CA        -72.1408   26.3750  -79.8281 C.3       7 UNK         0.0284 
     36 CB        -71.0775   25.8373  -80.8001 C.3       7 UNK        -0.1958 
     37 N         -73.0542   25.2867  -79.4716 N.am      7 UNK        -0.4454 
     38 C         -74.2388   25.4467  -78.8675 C.2       7 UNK         0.5089 
     39 O         -74.7065   26.5464  -78.5674 O.2       7 UNK        -0.5125 
     40 CA        -75.0296   24.1710  -78.5116 C.3       6 UNK         0.0408 
     41 CB        -74.3814   22.8550  -78.9990 C.3       6 UNK        -0.1791 
     42 N         -75.3119   24.0919  -77.0756 N.am      6 UNK        -0.4762 
     43 C         -74.4207   24.1355  -76.0700 C.2       6 UNK         0.5007 
     44 O         -73.2050   24.2342  -76.2461 O.2       6 UNK        -0.5032 
     45 CA        -74.9649   24.0665  -74.6240 C.3       5 UNK         0.0783 
     46 C46       -74.9576   25.4785  -73.9931 C.3       11 UNK        -0.0857 
     47 S47       -75.3047   25.4875  -72.2023 S.3       11 UNK        -0.2512 
     48 C48       -77.0580   25.9724  -72.1177 C.3       11 UNK         0.0225 
     49 N         -76.2929   23.4476  -74.5540 N.am      5 UNK        -0.4615 
     50 C         -76.5488   22.1512  -74.7690 C.2       4 UNK         0.5053 
     51 O         -75.6736   21.3049  -74.9517 O.2       4 UNK        -0.5105 
     52 CA        -78.0284   21.7213  -74.8027 C.3       4 UNK         0.0263 
     53 CB        -78.4193   21.0628  -73.4696 C.3       4 UNK        -0.1981 
     54 N         -78.9905   22.7918  -75.0978 N.am      4 UNK        -0.4224 
     55 C         -79.0213   23.5739  -76.1853 C.2       3 UNK         0.4895 
     56 O         -78.1744   23.5276  -77.0765 O.2       3 UNK        -0.5091 
     57 CA        -80.1556   24.6115  -76.2994 C.3       3 UNK         0.0250 
     58 CB        -81.2863   24.0877  -77.2052 C.3       3 UNK        -0.1996 
     59 N         -80.6894   25.1230  -75.0254 N.am      3 UNK        -0.4254 
     60 C         -81.3683   24.4730  -74.0669 C.2       2 UNK         0.5004 
     61 O         -81.6070   23.2660  -74.1012 O.2       2 UNK        -0.5226 
     62 CA        -81.8117   25.2796  -72.8334 C.3       2 UNK         0.0269 
     63 CB        -81.0759   24.7846  -71.5760 C.3       2 UNK        -0.1926 
     64 N         -81.5898   26.7212  -72.9627 N.am      2 UNK        -0.4687 
     65 C         -82.3832   27.5774  -73.6245 C.2       1 UNK         0.5165 
     66 O         -83.4066   27.2376  -74.2194 O.2       1 UNK        -0.5079 
     67 H67       -80.8052   29.4032  -69.1739 H         1 UNK         0.0900 
     68 H68       -80.1822   30.7837  -70.0773 H         1 UNK         0.0900 
     69 H69       -79.5277   29.1581  -70.3546 H         1 UNK         0.0900 
     70 H70       -80.0769   29.4426  -72.7066 H         1 UNK         0.2959 
     71 H71       -82.8795   29.6268  -73.4448 H         1 UNK         0.1079 
     72 H72       -80.9209   30.5463  -74.8462 H         1 UNK         0.0837 
     73 H73       -82.2327   29.7544  -75.6453 H         1 UNK         0.0837 
     74 H74       -77.9439   28.8161  -76.3740 H         1 UNK         0.0685 
     75 H75       -78.7046   30.2987  -75.8526 H         1 UNK         0.0685 
     76 H76       -77.9779   26.8487  -74.5308 H         1 UNK         0.1434 
     77 H77       -76.7101   28.2776  -70.6906 H         1 UNK         0.1329 
     78 H78       -78.1019   31.0422  -73.6614 H         1 UNK         0.1335 
     79 H79       -78.1325   31.5438  -71.1212 H         1 UNK         0.0680 
     80 H80       -77.1304   30.5795  -70.0712 H         1 UNK         0.0680 
     81 H81       -73.9939   31.6605  -70.0135 H         1 UNK         0.1032 
     82 H82       -74.7447   30.1384  -70.4096 H         1 UNK         0.1032 
     83 H83       -73.0708   31.7992  -72.3473 H         1 UNK         0.0461 
     84 H84       -71.8155   28.6659  -72.5315 H         1 UNK         0.3453 
     85 H85       -70.5748   28.8761  -71.3230 H         1 UNK         0.3453 
     86 H86       -74.5533   29.3117  -72.7599 H         1 UNK         0.2984 
     87 H87       -74.5593   28.2412  -74.6233 H         1 UNK         0.0554 
     88 H88       -75.3902   28.8084  -76.8762 H         1 UNK         0.0847 
     89 H89       -75.7104   30.1436  -75.7786 H         1 UNK         0.0847 
     90 H90       -74.3825   30.2562  -76.9238 H         1 UNK         0.0847 
     91 H91       -72.9189   28.2334  -76.9058 H         1 UNK         0.3141 
     92 H92       -70.1162   27.6415  -76.4323 H         1 UNK         0.0743 
     93 H93       -69.5986   26.0631  -74.6232 H         1 UNK         0.0784 
     94 H94       -70.8285   24.9394  -75.1826 H         1 UNK         0.0784 
     95 H95       -69.3986   25.2525  -76.1663 H         1 UNK         0.0784 
     96 H96       -71.9558   25.5036  -77.3822 H         1 UNK         0.3213 
     97 H97       -72.7185   27.1441  -80.3459 H         1 UNK         0.0855 
     98 H98       -70.3991   26.6318  -81.1147 H         1 UNK         0.0814 
     99 H99       -71.5330   25.4287  -81.7024 H         1 UNK         0.0814 
    100 H100      -70.4710   25.0542  -80.3435 H         1 UNK         0.0814 
    101 H101      -72.7407   24.3472  -79.6686 H         1 UNK         0.3105 
    102 H102      -75.9964   24.2654  -79.0082 H         1 UNK         0.0547 
    103 H103      -74.2453   22.8551  -80.0813 H         1 UNK         0.0837 
    104 H104      -73.4108   22.6733  -78.5359 H         1 UNK         0.0837 
    105 H105      -75.0175   22.0016  -78.7631 H         1 UNK         0.0837 
    106 H106      -76.2973   23.9940  -76.8470 H         1 UNK         0.3020 
    107 H107      -74.2710   23.4367  -74.0620 H         1 UNK         0.1245 
    108 H108      -73.9695   25.9232  -74.1037 H         1 UNK         0.0781 
    109 H109      -75.6437   26.1395  -74.5210 H         1 UNK         0.0781 
    110 H110      -77.3978   25.8573  -71.0873 H         1 UNK         0.0836 
    111 H111      -77.6574   25.2769  -72.7058 H         1 UNK         0.0836 
    112 H112      -77.0733   24.0659  -74.4037 H         1 UNK         0.3022 
    113 H113      -78.1247   20.9766  -75.5952 H         1 UNK         0.0747 
    114 H114      -79.4304   20.6567  -73.5085 H         1 UNK         0.0793 
    115 H115      -77.7493   20.2361  -73.2286 H         1 UNK         0.0793 
    116 H116      -78.3741   21.7721  -72.6421 H         1 UNK         0.0793 
    117 H117      -79.7901   22.8668  -74.4749 H         1 UNK         0.3047 
    118 H118      -79.7183   25.4784  -76.7977 H         1 UNK         0.0822 
    119 H119      -82.0523   24.8477  -77.3606 H         1 UNK         0.0807 
    120 H120      -81.7695   23.2043  -76.7869 H         1 UNK         0.0807 
    121 H121      -80.9013   23.8106  -78.1876 H         1 UNK         0.0807 
    122 H122      -80.5510   26.1144  -74.8802 H         1 UNK         0.2946 
    123 H123      -82.8812   25.0992  -72.7015 H         1 UNK         0.1144 
    124 H124      -81.4226   25.3058  -70.6834 H         1 UNK         0.0793 
    125 H125      -79.9982   24.9307  -71.6526 H         1 UNK         0.0793 
    126 H126      -81.2495   23.7200  -71.4125 H         1 UNK         0.0793 
    127 H127      -80.7772   27.1007  -72.4990 H         1 UNK         0.2896 
@<TRIPOS>BOND
     1    1    2 1    
     2    1   67 1    
     3    1   68 1    
     4    1   69 1    
     5    2    3 2    
     6    2    4 am   BACKBONE|DICT|INTERRES
     7    4    5 1    
     8    4   70 1    
     9    5    6 1    
    10    5   65 1    
    11    5   71 1    
    12    6    7 1    
    13    6   72 1    
    14    6   73 1    
    15    7    8 1    
    16    8    9 1    
    17    8   74 1    
    18    8   75 1    
    19    9   10 ar   
    20    9   14 ar   
    21   10   11 ar   
    22   10   76 1    
    23   11   12 ar   
    24   11   48 1    
    25   12   13 ar   
    26   12   77 1    
    27   13   14 ar   
    28   13   15 1    
    29   14   78 1    
    30   15   16 1    
    31   15   79 1    
    32   15   80 1    
    33   16   17 1    
    34   17   18 1    
    35   17   81 1    
    36   17   82 1    
    37   18   19 1    
    38   18   22 1    
    39   18   83 1    
    40   19   20 am   BACKBONE|DICT|INTERRES
    41   19   21 2    
    42   20   84 1    
    43   20   85 1    
    44   22   23 am   BACKBONE|DICT|INTERRES
    45   22   86 1    
    46   23   24 2    
    47   23   25 1    
    48   25   26 1    
    49   25   27 1    
    50   25   87 1    
    51   26   88 1    
    52   26   89 1    
    53   26   90 1    
    54   27   28 am   BACKBONE|DICT|INTERRES
    55   27   91 1    
    56   28   29 2    
    57   28   30 1    
    58   30   31 1    
    59   30   32 1    
    60   30   92 1    
    61   31   93 1    
    62   31   94 1    
    63   31   95 1    
    64   32   33 am   BACKBONE|DICT|INTERRES
    65   32   96 1    
    66   33   34 2    
    67   33   35 1    
    68   35   36 1    
    69   35   37 1    
    70   35   97 1    
    71   36   98 1    
    72   36   99 1    
    73   36  100 1    
    74   37   38 am   BACKBONE|DICT|INTERRES
    75   37  101 1    
    76   38   39 2    
    77   38   40 1    
    78   40   41 1    
    79   40   42 1    
    80   40  102 1    
    81   41  103 1    
    82   41  104 1    
    83   41  105 1    
    84   42   43 am   BACKBONE|DICT|INTERRES
    85   42  106 1    
    86   43   44 2    
    87   43   45 1    
    88   45   46 1    
    89   45   49 1    
    90   45  107 1    
    91   46   47 1    
    92   46  108 1    
    93   46  109 1    
    94   47   48 1    
    95   48  110 1    
    96   48  111 1    
    97   49   50 am   BACKBONE|DICT|INTERRES
    98   49  112 1    
    99   50   51 2    
   100   50   52 1    
   101   52   53 1    
   102   52   54 1    
   103   52  113 1    
   104   53  114 1    
   105   53  115 1    
   106   53  116 1    
   107   54   55 am   BACKBONE|DICT|INTERRES
   108   54  117 1    
   109   55   56 2    
   110   55   57 1    
   111   57   58 1    
   112   57   59 1    
   113   57  118 1    
   114   58  119 1    
   115   58  120 1    
   116   58  121 1    
   117   59   60 am   BACKBONE|DICT|INTERRES
   118   59  122 1    
   119   60   61 2    
   120   60   62 1    
   121   62   63 1    
   122   62   64 1    
   123   62  123 1    
   124   63  124 1    
   125   63  125 1    
   126   63  126 1    
   127   64   65 am   BACKBONE|DICT|INTERRES
   128   64  127 1    
   129   65   66 2    
@<TRIPOS>SUBSTRUCTURE
     1 UNK         1 GROUP             0       ****    0 ROOT    
