@<TRIPOS>MOLECULE
3R135
127   129    1
SMALL
USER_CHARGES


@<TRIPOS>ATOM
      1 CA        -81.0816   22.2177  -69.8124 C.3       0 UNK        -0.1998 
      2 C         -81.5508   23.3844  -70.6688 C.2       0 UNK         0.4909 
      3 O         -82.7432   23.4903  -70.9597 O.2       0 UNK        -0.5240 
      4 N         -80.6237   24.2653  -71.0643 N.am      1 UNK        -0.4739 
      5 CA        -80.8787   25.4169  -71.9381 C.3       1 UNK         0.0864 
      6 C6        -79.7096   26.4353  -71.9050 C.3       11 UNK        -0.0881 
      7 S7        -79.3538   27.0403  -70.2181 S.3       11 UNK        -0.2682 
      8 C8        -79.9301   28.7661  -70.2876 C.3       11 UNK         0.0289 
      9 C9        -78.9794   29.6457  -71.0865 C.ar      11 UNK        -0.0687 
     10 C10       -79.2830   29.9975  -72.4048 C.ar      11 UNK        -0.0823 
     11 C11       -78.4037   30.7907  -73.1463 C.ar      11 UNK        -0.0830 
     12 C12       -77.2240   31.2500  -72.5559 C.ar      11 UNK        -0.1021 
     13 C13       -76.9095   30.9071  -71.2388 C.ar      11 UNK        -0.0753 
     14 C14       -77.7942   30.1095  -70.5059 C.ar      11 UNK        -0.0933 
     15 C15       -75.6122   31.3997  -70.6142 C.3       11 UNK         0.0166 
     16 S16       -74.4266   30.0500  -70.3165 S.3       11 UNK        -0.2615 
     17 C17       -74.0642   29.4472  -72.0050 C.3       11 UNK        -0.0865 
     18 CA        -72.8155   30.0948  -72.6613 C.3       10 UNK         0.0862 
     19 C         -71.5124   29.7948  -71.8651 C.2       10 UNK         0.5551 
     20 N         -70.9046   30.8026  -71.2539 N.am      10 UNK        -0.7319 
     21 O         -71.0743   28.6503  -71.7738 O.2       10 UNK        -0.5018 
     22 N         -72.7085   29.6558  -74.0592 N.am      10 UNK        -0.4509 
     23 C         -71.8068   30.0790  -74.9568 C.2       10 UNK         0.4899 
     24 O         -71.0442   31.0288  -74.7725 O.2       10 UNK        -0.4839 
     25 CA        -71.7551   29.2835  -76.2787 C.3       9 UNK         0.0222 
     26 CB        -70.4847   29.5558  -77.1125 C.3       9 UNK        -0.1966 
     27 N         -71.9610   27.8452  -76.0501 N.am      9 UNK        -0.4218 
     28 C         -71.1710   27.0208  -75.3416 C.2       9 UNK         0.5020 
     29 O         -70.0461   27.3177  -74.9380 O.2       9 UNK        -0.5274 
     30 CA        -71.7434   25.6430  -74.9728 C.3       8 UNK         0.0270 
     31 CB        -72.3970   25.7022  -73.5821 C.3       8 UNK        -0.1976 
     32 N         -72.7125   25.1332  -75.9463 N.am      8 UNK        -0.4313 
     33 C         -72.3595   24.5220  -77.0866 C.2       8 UNK         0.5041 
     34 O         -71.1912   24.3537  -77.4395 O.2       8 UNK        -0.5577 
     35 CA        -73.4930   23.9963  -77.9830 C.3       7 UNK         0.0284 
     36 CB        -74.0871   22.7023  -77.4054 C.3       7 UNK        -0.1958 
     37 N         -74.5529   24.9820  -78.2013 N.am      7 UNK        -0.4454 
     38 C         -74.3919   26.1133  -78.9031 C.2       7 UNK         0.5089 
     39 O         -73.3397   26.4403  -79.4523 O.2       7 UNK        -0.5125 
     40 CA        -75.6087   27.0463  -79.0058 C.3       6 UNK         0.0408 
     41 CB        -76.5300   26.6121  -80.1567 C.3       6 UNK        -0.1791 
     42 N         -76.3798   27.1207  -77.7651 N.am      6 UNK        -0.4762 
     43 C         -75.9304   27.6412  -76.6137 C.2       6 UNK         0.5007 
     44 O         -74.7956   28.0899  -76.4523 O.2       6 UNK        -0.5032 
     45 CA        -76.9098   27.5967  -75.4247 C.3       5 UNK         0.0783 
     46 C46       -78.0931   28.5801  -75.6264 C.3       11 UNK        -0.0857 
     47 S47       -77.5850   30.3319  -75.7486 S.3       11 UNK        -0.2512 
     48 C48       -78.7209   31.1521  -74.5878 C.3       11 UNK         0.0225 
     49 N         -77.3743   26.2217  -75.2026 N.am      5 UNK        -0.4615 
     50 C         -76.5720   25.1797  -74.9205 C.2       4 UNK         0.5053 
     51 O         -75.3640   25.2859  -74.7141 O.2       4 UNK        -0.5105 
     52 CA        -77.1890   23.7693  -74.9341 C.3       4 UNK         0.0263 
     53 CB        -77.4847   23.2764  -73.5100 C.3       4 UNK        -0.1981 
     54 N         -78.3844   23.6691  -75.7753 N.am      4 UNK        -0.4224 
     55 C         -78.3627   23.8060  -77.1120 C.2       3 UNK         0.4895 
     56 O         -77.3266   23.9762  -77.7573 O.2       3 UNK        -0.5091 
     57 CA        -79.7088   23.8002  -77.8612 C.3       3 UNK         0.0250 
     58 CB        -79.9731   22.4150  -78.4716 C.3       3 UNK        -0.1996 
     59 N         -80.8630   24.1993  -77.0483 N.am      3 UNK        -0.4254 
     60 C         -81.0050   25.3795  -76.4283 C.2       2 UNK         0.5004 
     61 O         -80.1623   26.2760  -76.4745 O.2       2 UNK        -0.5226 
     62 CA        -82.2588   25.5846  -75.5549 C.3       2 UNK         0.0269 
     63 CB        -83.3165   24.4642  -75.6871 C.3       2 UNK        -0.1926 
     64 N         -81.9002   25.7836  -74.1429 N.am      2 UNK        -0.4687 
     65 C         -81.1597   24.9586  -73.3859 C.2       1 UNK         0.5165 
     66 O         -80.6786   23.8993  -73.8009 O.2       1 UNK        -0.5079 
     67 H67       -81.5960   22.2261  -68.8518 H         1 UNK         0.0900 
     68 H68       -81.3038   21.2744  -70.3106 H         1 UNK         0.0900 
     69 H69       -80.0090   22.2565  -69.6231 H         1 UNK         0.0900 
     70 H70       -79.6609   24.1308  -70.7928 H         1 UNK         0.2959 
     71 H71       -81.7779   25.9162  -71.5697 H         1 UNK         0.1079 
     72 H72       -79.9269   27.2816  -72.5564 H         1 UNK         0.0837 
     73 H73       -78.7930   25.9940  -72.2973 H         1 UNK         0.0837 
     74 H74       -80.9384   28.7998  -70.7032 H         1 UNK         0.0685 
     75 H75       -80.0078   29.1510  -69.2697 H         1 UNK         0.0685 
     76 H76       -80.2005   29.6473  -72.8572 H         1 UNK         0.1434 
     77 H77       -76.5434   31.8624  -73.1322 H         1 UNK         0.1329 
     78 H78       -77.5516   29.8365  -69.4878 H         1 UNK         0.1335 
     79 H79       -75.1386   32.1569  -71.2412 H         1 UNK         0.0680 
     80 H80       -75.8367   31.8864  -69.6640 H         1 UNK         0.0680 
     81 H81       -73.9392   28.3641  -71.9491 H         1 UNK         0.1032 
     82 H82       -74.9393   29.6039  -72.6359 H         1 UNK         0.1032 
     83 H83       -72.9717   31.1752  -72.6834 H         1 UNK         0.0461 
     84 H84       -70.0669   30.6215  -70.7236 H         1 UNK         0.3453 
     85 H85       -71.2639   31.7420  -71.3193 H         1 UNK         0.3453 
     86 H86       -73.2887   28.8742  -74.3244 H         1 UNK         0.2984 
     87 H87       -72.6071   29.6219  -76.8696 H         1 UNK         0.0554 
     88 H88       -70.4773   28.9641  -78.0278 H         1 UNK         0.0847 
     89 H89       -69.5741   29.3291  -76.5577 H         1 UNK         0.0847 
     90 H90       -70.4301   30.6052  -77.4045 H         1 UNK         0.0847 
     91 H91       -72.8833   27.5127  -76.3160 H         1 UNK         0.3141 
     92 H92       -70.9060   24.9439  -74.9144 H         1 UNK         0.0743 
     93 H93       -73.2266   26.4092  -73.5545 H         1 UNK         0.0784 
     94 H94       -72.7779   24.7268  -73.2790 H         1 UNK         0.0784 
     95 H95       -71.6769   26.0196  -72.8263 H         1 UNK         0.0784 
     96 H96       -73.6961   25.2111  -75.6965 H         1 UNK         0.3213 
     97 H97       -73.0620   23.7586  -78.9582 H         1 UNK         0.0855 
     98 H98       -74.4572   22.8462  -76.3914 H         1 UNK         0.0814 
     99 H99       -73.3318   21.9165  -77.3630 H         1 UNK         0.0814 
    100 H100      -74.9095   22.3302  -78.0168 H         1 UNK         0.0814 
    101 H101      -75.4785   24.7603  -77.8459 H         1 UNK         0.3105 
    102 H102      -75.2389   28.0500  -79.2264 H         1 UNK         0.0547 
    103 H103      -75.9826   26.5722  -81.0994 H         1 UNK         0.0837 
    104 H104      -76.9546   25.6221  -79.9853 H         1 UNK         0.0837 
    105 H105      -77.3542   27.3126  -80.2921 H         1 UNK         0.0837 
    106 H106      -77.3101   26.7275  -77.7839 H         1 UNK         0.3020 
    107 H107      -76.3591   27.9025  -74.5322 H         1 UNK         0.1245 
    108 H108      -78.8038   28.4650  -74.8076 H         1 UNK         0.0781 
    109 H109      -78.6482   28.3400  -76.5339 H         1 UNK         0.0781 
    110 H110      -79.7501   30.8958  -74.8444 H         1 UNK         0.0836 
    111 H111      -78.6347   32.2324  -74.7130 H         1 UNK         0.0836 
    112 H112      -78.3480   26.0435  -75.4219 H         1 UNK         0.3022 
    113 H113      -76.4441   23.0950  -75.3567 H         1 UNK         0.0747 
    114 H114      -77.8837   22.2620  -73.5156 H         1 UNK         0.0793 
    115 H115      -76.5750   23.2639  -72.9081 H         1 UNK         0.0793 
    116 H116      -78.2011   23.9133  -72.9971 H         1 UNK         0.0793 
    117 H117      -79.2744   23.5676  -75.2970 H         1 UNK         0.3047 
    118 H118      -79.6209   24.5217  -78.6763 H         1 UNK         0.0822 
    119 H119      -80.8676   22.4187  -79.0948 H         1 UNK         0.0807 
    120 H120      -80.1010   21.6526  -77.7021 H         1 UNK         0.0807 
    121 H121      -79.1415   22.1024  -79.1050 H         1 UNK         0.0807 
    122 H122      -81.5883   23.5080  -76.9231 H         1 UNK         0.2946 
    123 H123      -82.7143   26.5139  -75.9016 H         1 UNK         0.1144 
    124 H124      -84.2082   24.7033  -75.1074 H         1 UNK         0.0793 
    125 H125      -82.9486   23.5003  -75.3331 H         1 UNK         0.0793 
    126 H126      -83.6376   24.3418  -76.7226 H         1 UNK         0.0793 
    127 H127      -82.2254   26.6490  -73.7346 H         1 UNK         0.2896 
@<TRIPOS>BOND
     1    1    2 1    
     2    1   67 1    
     3    1   68 1    
     4    1   69 1    
     5    2    3 2    
     6    2    4 am   BACKBONE|DICT|INTERRES
     7    4    5 1    
     8    4   70 1    
     9    5    6 1    
    10    5   65 1    
    11    5   71 1    
    12    6    7 1    
    13    6   72 1    
    14    6   73 1    
    15    7    8 1    
    16    8    9 1    
    17    8   74 1    
    18    8   75 1    
    19    9   10 ar   
    20    9   14 ar   
    21   10   11 ar   
    22   10   76 1    
    23   11   12 ar   
    24   11   48 1    
    25   12   13 ar   
    26   12   77 1    
    27   13   14 ar   
    28   13   15 1    
    29   14   78 1    
    30   15   16 1    
    31   15   79 1    
    32   15   80 1    
    33   16   17 1    
    34   17   18 1    
    35   17   81 1    
    36   17   82 1    
    37   18   19 1    
    38   18   22 1    
    39   18   83 1    
    40   19   20 am   BACKBONE|DICT|INTERRES
    41   19   21 2    
    42   20   84 1    
    43   20   85 1    
    44   22   23 am   BACKBONE|DICT|INTERRES
    45   22   86 1    
    46   23   24 2    
    47   23   25 1    
    48   25   26 1    
    49   25   27 1    
    50   25   87 1    
    51   26   88 1    
    52   26   89 1    
    53   26   90 1    
    54   27   28 am   BACKBONE|DICT|INTERRES
    55   27   91 1    
    56   28   29 2    
    57   28   30 1    
    58   30   31 1    
    59   30   32 1    
    60   30   92 1    
    61   31   93 1    
    62   31   94 1    
    63   31   95 1    
    64   32   33 am   BACKBONE|DICT|INTERRES
    65   32   96 1    
    66   33   34 2    
    67   33   35 1    
    68   35   36 1    
    69   35   37 1    
    70   35   97 1    
    71   36   98 1    
    72   36   99 1    
    73   36  100 1    
    74   37   38 am   BACKBONE|DICT|INTERRES
    75   37  101 1    
    76   38   39 2    
    77   38   40 1    
    78   40   41 1    
    79   40   42 1    
    80   40  102 1    
    81   41  103 1    
    82   41  104 1    
    83   41  105 1    
    84   42   43 am   BACKBONE|DICT|INTERRES
    85   42  106 1    
    86   43   44 2    
    87   43   45 1    
    88   45   46 1    
    89   45   49 1    
    90   45  107 1    
    91   46   47 1    
    92   46  108 1    
    93   46  109 1    
    94   47   48 1    
    95   48  110 1    
    96   48  111 1    
    97   49   50 am   BACKBONE|DICT|INTERRES
    98   49  112 1    
    99   50   51 2    
   100   50   52 1    
   101   52   53 1    
   102   52   54 1    
   103   52  113 1    
   104   53  114 1    
   105   53  115 1    
   106   53  116 1    
   107   54   55 am   BACKBONE|DICT|INTERRES
   108   54  117 1    
   109   55   56 2    
   110   55   57 1    
   111   57   58 1    
   112   57   59 1    
   113   57  118 1    
   114   58  119 1    
   115   58  120 1    
   116   58  121 1    
   117   59   60 am   BACKBONE|DICT|INTERRES
   118   59  122 1    
   119   60   61 2    
   120   60   62 1    
   121   62   63 1    
   122   62   64 1    
   123   62  123 1    
   124   63  124 1    
   125   63  125 1    
   126   63  126 1    
   127   64   65 am   BACKBONE|DICT|INTERRES
   128   64  127 1    
   129   65   66 2    
@<TRIPOS>SUBSTRUCTURE
     1 UNK         1 GROUP             0       ****    0 ROOT    
