@<TRIPOS>MOLECULE
3R135
127   129    1
SMALL
USER_CHARGES


@<TRIPOS>ATOM
      1 CA        -78.6560   31.4464  -76.5901 C.3       0 UNK        -0.1998 
      2 C         -78.2386   29.9844  -76.6191 C.2       0 UNK         0.4909 
      3 O         -77.7871   29.4953  -77.6534 O.2       0 UNK        -0.5240 
      4 N         -78.3918   29.2784  -75.4910 N.am      1 UNK        -0.4739 
      5 CA        -78.0447   27.8604  -75.3151 C.3       1 UNK         0.0864 
      6 C6        -77.8909   27.4940  -73.8170 C.3       11 UNK        -0.0881 
      7 S7        -79.3657   27.8736  -72.8007 S.3       11 UNK        -0.2682 
      8 C8        -79.2188   26.6783  -71.4247 C.3       11 UNK         0.0289 
      9 C9        -77.8231   26.6382  -70.8117 C.ar      11 UNK        -0.0687 
     10 C10       -77.1529   25.4178  -70.6843 C.ar      11 UNK        -0.0823 
     11 C11       -75.8306   25.3731  -70.2297 C.ar      11 UNK        -0.0830 
     12 C12       -75.1957   26.5617  -69.8602 C.ar      11 UNK        -0.1021 
     13 C13       -75.8668   27.7840  -69.9456 C.ar      11 UNK        -0.0753 
     14 C14       -77.1852   27.8153  -70.4071 C.ar      11 UNK        -0.0933 
     15 C15       -75.1482   29.0678  -69.5661 C.3       11 UNK         0.0166 
     16 S16       -74.2559   29.7615  -70.9915 S.3       11 UNK        -0.2615 
     17 C17       -75.5567   30.8010  -71.7453 C.3       11 UNK        -0.0865 
     18 CA        -75.1353   31.4626  -73.0818 C.3       10 UNK         0.0862 
     19 C         -73.9847   32.4988  -72.8951 C.2       10 UNK         0.5551 
     20 N         -72.7952   32.2849  -73.4483 N.am      10 UNK        -0.7319 
     21 O         -74.1842   33.5218  -72.2445 O.2       10 UNK        -0.5018 
     22 N         -74.8983   30.4558  -74.1250 N.am      10 UNK        -0.4509 
     23 C         -74.8660   30.7193  -75.4374 C.2       10 UNK         0.4899 
     24 O         -75.1683   31.8132  -75.9162 O.2       10 UNK        -0.4839 
     25 CA        -74.4258   29.5761  -76.3735 C.3       9 UNK         0.0222 
     26 CB        -73.7084   30.1049  -77.6332 C.3       9 UNK        -0.1966 
     27 N         -73.6205   28.5351  -75.7236 N.am      9 UNK        -0.4218 
     28 C         -72.4280   28.6792  -75.1238 C.2       9 UNK         0.5020 
     29 O         -71.8747   29.7629  -74.9302 O.2       9 UNK        -0.5274 
     30 CA        -71.7401   27.3837  -74.6684 C.3       8 UNK         0.0270 
     31 CB        -72.2342   26.9725  -73.2703 C.3       8 UNK        -0.1976 
     32 N         -71.9747   26.2978  -75.6268 N.am      8 UNK        -0.4313 
     33 C         -71.2887   26.1392  -76.7697 C.2       8 UNK         0.5041 
     34 O         -70.3140   26.8246  -77.0811 O.2       8 UNK        -0.5577 
     35 CA        -71.7613   25.0346  -77.7350 C.3       7 UNK         0.0284 
     36 CB        -71.0395   23.7116  -77.4315 C.3       7 UNK        -0.1958 
     37 N         -73.2094   24.8166  -77.6966 N.am      7 UNK        -0.4454 
     38 C         -74.1267   25.6614  -78.1908 C.2       7 UNK         0.5089 
     39 O         -73.8483   26.6706  -78.8361 O.2       7 UNK        -0.5125 
     40 CA        -75.6059   25.3473  -77.8840 C.3       6 UNK         0.0408 
     41 CB        -76.2775   24.6590  -79.0813 C.3       6 UNK        -0.1791 
     42 N         -75.8045   24.5280  -76.6817 N.am      6 UNK        -0.4762 
     43 C         -75.4426   24.8817  -75.4428 C.2       6 UNK         0.5007 
     44 O         -74.9197   25.9688  -75.1840 O.2       6 UNK        -0.5032 
     45 CA        -75.6700   23.8396  -74.3290 C.3       5 UNK         0.0783 
     46 C46       -74.9025   24.2009  -73.0292 C.3       11 UNK        -0.0857 
     47 S47       -75.2289   23.0217  -71.6686 S.3       11 UNK        -0.2512 
     48 C48       -75.0591   24.0572  -70.1709 C.3       11 UNK         0.0225 
     49 N         -77.0968   23.6037  -74.0863 N.am      5 UNK        -0.4615 
     50 C         -77.8875   22.8121  -74.8216 C.2       4 UNK         0.5053 
     51 O         -77.5549   22.3240  -75.9026 O.2       4 UNK        -0.5105 
     52 CA        -79.2540   22.4655  -74.2178 C.3       4 UNK         0.0263 
     53 CB        -79.1397   22.0849  -72.7220 C.3       4 UNK        -0.1981 
     54 N         -80.2086   23.5564  -74.4230 N.am      4 UNK        -0.4224 
     55 C         -81.5298   23.4525  -74.2013 C.2       3 UNK         0.4895 
     56 O         -82.0762   22.4144  -73.8251 O.2       3 UNK        -0.5091 
     57 CA        -82.4132   24.6963  -74.4146 C.3       3 UNK         0.0250 
     58 CB        -82.7086   25.3856  -73.0724 C.3       3 UNK        -0.1996 
     59 N         -81.8418   25.6734  -75.3377 N.am      3 UNK        -0.4254 
     60 C         -81.7759   25.5190  -76.6669 C.2       2 UNK         0.5004 
     61 O         -82.2591   24.5610  -77.2712 O.2       2 UNK        -0.5226 
     62 CA        -81.0328   26.6115  -77.4573 C.3       2 UNK         0.0269 
     63 CB        -82.0328   27.5781  -78.1123 C.3       2 UNK        -0.1926 
     64 N         -80.0693   27.3857  -76.6646 N.am      2 UNK        -0.4687 
     65 C         -78.9893   26.8822  -76.0484 C.2       1 UNK         0.5165 
     66 O         -78.7419   25.6779  -76.0186 O.2       1 UNK        -0.5079 
     67 H67       -77.8154   32.0802  -76.8720 H         1 UNK         0.0900 
     68 H68       -79.4664   31.6203  -77.2974 H         1 UNK         0.0900 
     69 H69       -78.9938   31.7546  -75.6008 H         1 UNK         0.0900 
     70 H70       -78.7885   29.7213  -74.6732 H         1 UNK         0.2959 
     71 H71       -77.0689   27.7070  -75.7796 H         1 UNK         0.1079 
     72 H72       -77.0461   28.0434  -73.3986 H         1 UNK         0.0837 
     73 H73       -77.6303   26.4406  -73.7028 H         1 UNK         0.0837 
     74 H74       -79.5013   25.6924  -71.7967 H         1 UNK         0.0685 
     75 H75       -79.9420   26.9371  -70.6505 H         1 UNK         0.0685 
     76 H76       -77.6441   24.5008  -70.9733 H         1 UNK         0.1434 
     77 H77       -74.1692   26.5420  -69.5196 H         1 UNK         0.1329 
     78 H78       -77.7045   28.7597  -70.4902 H         1 UNK         0.1335 
     79 H79       -74.4315   28.8669  -68.7683 H         1 UNK         0.0680 
     80 H80       -75.8505   29.8005  -69.1656 H         1 UNK         0.0680 
     81 H81       -75.8556   31.5651  -71.0251 H         1 UNK         0.1032 
     82 H82       -76.4439   30.1897  -71.9128 H         1 UNK         0.1032 
     83 H83       -75.9947   32.0489  -73.4136 H         1 UNK         0.0461 
     84 H84       -72.6110   31.4368  -73.9727 H         1 UNK         0.3453 
     85 H85       -72.0635   32.9654  -73.3227 H         1 UNK         0.3453 
     86 H86       -74.6045   29.5461  -73.8024 H         1 UNK         0.2984 
     87 H87       -75.3356   29.0775  -76.7032 H         1 UNK         0.0554 
     88 H88       -74.3651   30.7525  -78.2153 H         1 UNK         0.0847 
     89 H89       -73.4002   29.2899  -78.2875 H         1 UNK         0.0847 
     90 H90       -72.8202   30.6843  -77.3789 H         1 UNK         0.0847 
     91 H91       -74.0234   27.6020  -75.7351 H         1 UNK         0.3141 
     92 H92       -70.6666   27.5752  -74.6048 H         1 UNK         0.0743 
     93 H93       -71.7626   26.0482  -72.9364 H         1 UNK         0.0784 
     94 H94       -71.9945   27.7419  -72.5349 H         1 UNK         0.0784 
     95 H95       -73.3144   26.8297  -73.2405 H         1 UNK         0.0784 
     96 H96       -72.7962   25.7296  -75.4706 H         1 UNK         0.3213 
     97 H97       -71.4916   25.3455  -78.7470 H         1 UNK         0.0855 
     98 H98       -71.2779   23.3375  -76.4350 H         1 UNK         0.0814 
     99 H99       -69.9571   23.8394  -77.4803 H         1 UNK         0.0814 
    100 H100      -71.3047   22.9394  -78.1539 H         1 UNK         0.0814 
    101 H101      -73.5381   23.9910  -77.2181 H         1 UNK         0.3105 
    102 H102      -76.1096   26.3016  -77.7168 H         1 UNK         0.0547 
    103 H103      -75.8383   23.6816  -79.2845 H         1 UNK         0.0837 
    104 H104      -76.1731   25.2593  -79.9862 H         1 UNK         0.0837 
    105 H105      -77.3449   24.5194  -78.9079 H         1 UNK         0.0837 
    106 H106      -76.3097   23.6534  -76.7906 H         1 UNK         0.3020 
    107 H107      -75.2395   22.9031  -74.6922 H         1 UNK         0.1245 
    108 H108      -75.1616   25.2118  -72.7148 H         1 UNK         0.0781 
    109 H109      -73.8267   24.2115  -73.2129 H         1 UNK         0.0781 
    110 H110      -73.9961   24.2455  -70.0116 H         1 UNK         0.0836 
    111 H111      -75.4019   23.4862  -69.3073 H         1 UNK         0.0836 
    112 H112      -77.4540   23.9625  -73.2155 H         1 UNK         0.3022 
    113 H113      -79.6194   21.5911  -74.7608 H         1 UNK         0.0747 
    114 H114      -80.0270   21.5541  -72.3778 H         1 UNK         0.0793 
    115 H115      -78.2910   21.4222  -72.5440 H         1 UNK         0.0793 
    116 H116      -79.0162   22.9595  -72.0846 H         1 UNK         0.0793 
    117 H117      -79.8290   24.4074  -74.8289 H         1 UNK         0.3047 
    118 H118      -83.3619   24.3504  -74.8310 H         1 UNK         0.0822 
    119 H119      -83.4129   26.2086  -73.1959 H         1 UNK         0.0807 
    120 H120      -81.8044   25.7850  -72.6142 H         1 UNK         0.0807 
    121 H121      -83.1522   24.6860  -72.3625 H         1 UNK         0.0807 
    122 H122      -81.4212   26.4975  -74.9331 H         1 UNK         0.2946 
    123 H123      -80.4742   26.1044  -78.2473 H         1 UNK         0.1144 
    124 H124      -81.5263   28.2979  -78.7557 H         1 UNK         0.0793 
    125 H125      -82.6035   28.1343  -77.3675 H         1 UNK         0.0793 
    126 H126      -82.7481   27.0382  -78.7347 H         1 UNK         0.0793 
    127 H127      -80.2035   28.3858  -76.6315 H         1 UNK         0.2896 
@<TRIPOS>BOND
     1    1    2 1    
     2    1   67 1    
     3    1   68 1    
     4    1   69 1    
     5    2    3 2    
     6    2    4 am   BACKBONE|DICT|INTERRES
     7    4    5 1    
     8    4   70 1    
     9    5    6 1    
    10    5   65 1    
    11    5   71 1    
    12    6    7 1    
    13    6   72 1    
    14    6   73 1    
    15    7    8 1    
    16    8    9 1    
    17    8   74 1    
    18    8   75 1    
    19    9   10 ar   
    20    9   14 ar   
    21   10   11 ar   
    22   10   76 1    
    23   11   12 ar   
    24   11   48 1    
    25   12   13 ar   
    26   12   77 1    
    27   13   14 ar   
    28   13   15 1    
    29   14   78 1    
    30   15   16 1    
    31   15   79 1    
    32   15   80 1    
    33   16   17 1    
    34   17   18 1    
    35   17   81 1    
    36   17   82 1    
    37   18   19 1    
    38   18   22 1    
    39   18   83 1    
    40   19   20 am   BACKBONE|DICT|INTERRES
    41   19   21 2    
    42   20   84 1    
    43   20   85 1    
    44   22   23 am   BACKBONE|DICT|INTERRES
    45   22   86 1    
    46   23   24 2    
    47   23   25 1    
    48   25   26 1    
    49   25   27 1    
    50   25   87 1    
    51   26   88 1    
    52   26   89 1    
    53   26   90 1    
    54   27   28 am   BACKBONE|DICT|INTERRES
    55   27   91 1    
    56   28   29 2    
    57   28   30 1    
    58   30   31 1    
    59   30   32 1    
    60   30   92 1    
    61   31   93 1    
    62   31   94 1    
    63   31   95 1    
    64   32   33 am   BACKBONE|DICT|INTERRES
    65   32   96 1    
    66   33   34 2    
    67   33   35 1    
    68   35   36 1    
    69   35   37 1    
    70   35   97 1    
    71   36   98 1    
    72   36   99 1    
    73   36  100 1    
    74   37   38 am   BACKBONE|DICT|INTERRES
    75   37  101 1    
    76   38   39 2    
    77   38   40 1    
    78   40   41 1    
    79   40   42 1    
    80   40  102 1    
    81   41  103 1    
    82   41  104 1    
    83   41  105 1    
    84   42   43 am   BACKBONE|DICT|INTERRES
    85   42  106 1    
    86   43   44 2    
    87   43   45 1    
    88   45   46 1    
    89   45   49 1    
    90   45  107 1    
    91   46   47 1    
    92   46  108 1    
    93   46  109 1    
    94   47   48 1    
    95   48  110 1    
    96   48  111 1    
    97   49   50 am   BACKBONE|DICT|INTERRES
    98   49  112 1    
    99   50   51 2    
   100   50   52 1    
   101   52   53 1    
   102   52   54 1    
   103   52  113 1    
   104   53  114 1    
   105   53  115 1    
   106   53  116 1    
   107   54   55 am   BACKBONE|DICT|INTERRES
   108   54  117 1    
   109   55   56 2    
   110   55   57 1    
   111   57   58 1    
   112   57   59 1    
   113   57  118 1    
   114   58  119 1    
   115   58  120 1    
   116   58  121 1    
   117   59   60 am   BACKBONE|DICT|INTERRES
   118   59  122 1    
   119   60   61 2    
   120   60   62 1    
   121   62   63 1    
   122   62   64 1    
   123   62  123 1    
   124   63  124 1    
   125   63  125 1    
   126   63  126 1    
   127   64   65 am   BACKBONE|DICT|INTERRES
   128   64  127 1    
   129   65   66 2    
@<TRIPOS>SUBSTRUCTURE
     1 UNK         1 GROUP             0       ****    0 ROOT    
