@<TRIPOS>MOLECULE
3R135
127   129    1
SMALL
USER_CHARGES


@<TRIPOS>ATOM
      1 CA        -79.2280   29.2572  -74.8087 C.3       0 UNK        -0.1998 
      2 C         -80.7029   29.1929  -75.1943 C.2       0 UNK         0.4909 
      3 O         -81.0750   29.7377  -76.2316 O.2       0 UNK        -0.5240 
      4 N         -81.5817   28.5467  -74.4166 N.am      1 UNK        -0.4739 
      5 CA        -81.3207   27.8072  -73.1752 C.3       1 UNK         0.0864 
      6 C6        -81.9978   28.4622  -71.9406 C.3       11 UNK        -0.0881 
      7 S7        -81.4844   30.1946  -71.6620 S.3       11 UNK        -0.2682 
      8 C8        -80.3710   30.0631  -70.2256 C.3       11 UNK         0.0289 
      9 C9        -78.9925   29.5572  -70.6233 C.ar      11 UNK        -0.0687 
     10 C10       -78.6537   28.2132  -70.4424 C.ar      11 UNK        -0.0823 
     11 C11       -77.3960   27.7427  -70.8304 C.ar      11 UNK        -0.0830 
     12 C12       -76.4687   28.6297  -71.3870 C.ar      11 UNK        -0.1021 
     13 C13       -76.7920   29.9772  -71.5642 C.ar      11 UNK        -0.0753 
     14 C14       -78.0546   30.4368  -71.1756 C.ar      11 UNK        -0.0933 
     15 C15       -75.7844   30.9214  -72.2044 C.3       11 UNK         0.0166 
     16 S16       -74.3712   31.2354  -71.1018 S.3       11 UNK        -0.2615 
     17 C17       -73.3779   32.3986  -72.1041 C.3       11 UNK        -0.0865 
     18 CA        -72.0421   31.8527  -72.6961 C.3       10 UNK         0.0862 
     19 C         -71.0435   31.2800  -71.6416 C.2       10 UNK         0.5551 
     20 N         -70.2778   30.2395  -71.9451 N.am      10 UNK        -0.7319 
     21 O         -70.9170   31.8266  -70.5483 O.2       10 UNK        -0.5018 
     22 N         -72.2210   31.0904  -73.9474 N.am      10 UNK        -0.4509 
     23 C         -72.6217   29.8217  -74.1042 C.2       10 UNK         0.4899 
     24 O         -72.9098   29.0662  -73.1750 O.2       10 UNK        -0.4839 
     25 CA        -72.7439   29.3224  -75.5600 C.3       9 UNK         0.0222 
     26 CB        -71.7896   30.0223  -76.5554 C.3       9 UNK        -0.1966 
     27 N         -72.6290   27.8647  -75.6530 N.am      9 UNK        -0.4218 
     28 C         -71.5571   27.1035  -75.3916 C.2       9 UNK         0.5020 
     29 O         -70.4425   27.5475  -75.1095 O.2       9 UNK        -0.5274 
     30 CA        -71.7639   25.5780  -75.4396 C.3       8 UNK         0.0270 
     31 CB        -72.2159   25.0609  -74.0640 C.3       8 UNK        -0.1976 
     32 N         -72.7202   25.1387  -76.4624 N.am      8 UNK        -0.4313 
     33 C         -72.4988   25.1865  -77.7843 C.2       8 UNK         0.5041 
     34 O         -71.4525   25.5970  -78.2886 O.2       8 UNK        -0.5577 
     35 CA        -73.6306   24.6911  -78.7036 C.3       7 UNK         0.0284 
     36 CB        -73.6631   23.1551  -78.7637 C.3       7 UNK        -0.1958 
     37 N         -74.9430   25.1987  -78.3007 N.am      7 UNK        -0.4454 
     38 C         -75.3289   26.4768  -78.4256 C.2       7 UNK         0.5089 
     39 O         -74.6573   27.3469  -78.9802 O.2       7 UNK        -0.5125 
     40 CA        -76.6798   26.8601  -77.7947 C.3       6 UNK         0.0408 
     41 CB        -77.8345   26.6173  -78.7784 C.3       6 UNK        -0.1791 
     42 N         -76.9452   26.1520  -76.5401 N.am      6 UNK        -0.4762 
     43 C         -76.1992   26.2673  -75.4322 C.2       6 UNK         0.5007 
     44 O         -75.2344   27.0203  -75.3393 O.2       6 UNK        -0.5032 
     45 CA        -76.5675   25.3758  -74.2347 C.3       5 UNK         0.0783 
     46 C46       -77.7226   26.0172  -73.4439 C.3       11 UNK        -0.0857 
     47 S47       -78.0256   25.2214  -71.8326 S.3       11 UNK        -0.2512 
     48 C48       -77.0512   26.2658  -70.6965 C.3       11 UNK         0.0225 
     49 N         -76.8708   24.0069  -74.6552 N.am      5 UNK        -0.4615 
     50 C         -75.9863   23.1679  -75.2087 C.2       4 UNK         0.5053 
     51 O         -74.8006   23.4440  -75.3867 O.2       4 UNK        -0.5105 
     52 CA        -76.5314   21.8124  -75.6855 C.3       4 UNK         0.0263 
     53 CB        -76.6005   20.8161  -74.5176 C.3       4 UNK        -0.1981 
     54 N         -77.8513   21.9325  -76.3118 N.am      4 UNK        -0.4224 
     55 C         -78.0833   22.5702  -77.4690 C.2       3 UNK         0.4895 
     56 O         -77.1998   23.0796  -78.1596 O.2       3 UNK        -0.5091 
     57 CA        -79.5568   22.7038  -77.8975 C.3       3 UNK         0.0250 
     58 CB        -80.0407   21.4199  -78.5903 C.3       3 UNK        -0.1996 
     59 N         -80.4558   23.0381  -76.7834 N.am      3 UNK        -0.4254 
     60 C         -80.3742   24.1728  -76.0756 C.2       2 UNK         0.5004 
     61 O         -79.5426   25.0554  -76.3082 O.2       2 UNK        -0.5226 
     62 CA        -81.3340   24.3416  -74.8870 C.3       2 UNK         0.0269 
     63 CB        -80.9671   23.3424  -73.7677 C.3       2 UNK        -0.1926 
     64 N         -81.1938   25.7256  -74.4336 N.am      2 UNK        -0.4687 
     65 C         -81.7673   26.3469  -73.3972 C.2       1 UNK         0.5165 
     66 O         -82.6198   25.8324  -72.6719 O.2       1 UNK        -0.5079 
     67 H67       -78.7413   28.3054  -75.0122 H         1 UNK         0.0900 
     68 H68       -78.7167   30.0207  -75.3946 H         1 UNK         0.0900 
     69 H69       -79.0961   29.5153  -73.7588 H         1 UNK         0.0900 
     70 H70       -82.5452   28.5166  -74.7203 H         1 UNK         0.2959 
     71 H71       -80.2527   27.7510  -72.9639 H         1 UNK         0.1079 
     72 H72       -81.7943   27.8785  -71.0411 H         1 UNK         0.0837 
     73 H73       -83.0830   28.4586  -72.0591 H         1 UNK         0.0837 
     74 H74       -80.8187   29.4231  -69.4638 H         1 UNK         0.0685 
     75 H75       -80.2735   31.0496  -69.7699 H         1 UNK         0.0685 
     76 H76       -79.3750   27.5255  -70.0222 H         1 UNK         0.1434 
     77 H77       -75.4961   28.2738  -71.7017 H         1 UNK         0.1329 
     78 H78       -78.3170   31.4764  -71.3172 H         1 UNK         0.1335 
     79 H79       -76.2579   31.8701  -72.4616 H         1 UNK         0.0680 
     80 H80       -75.4279   30.4872  -73.1394 H         1 UNK         0.0680 
     81 H81       -73.1551   33.2518  -71.4609 H         1 UNK         0.1032 
     82 H82       -73.9940   32.8088  -72.9053 H         1 UNK         0.1032 
     83 H83       -71.5144   32.7401  -73.0477 H         1 UNK         0.0461 
     84 H84       -69.6223   29.8913  -71.2639 H         1 UNK         0.3453 
     85 H85       -70.3914   29.7674  -72.8285 H         1 UNK         0.3453 
     86 H86       -71.9867   31.6029  -74.7850 H         1 UNK         0.2984 
     87 H87       -73.7650   29.5501  -75.8694 H         1 UNK         0.0554 
     88 H88       -72.0400   31.0764  -76.6774 H         1 UNK         0.0847 
     89 H89       -71.8558   29.5688  -77.5448 H         1 UNK         0.0847 
     90 H90       -70.7488   29.9631  -76.2348 H         1 UNK         0.0847 
     91 H91       -73.5250   27.3881  -75.7460 H         1 UNK         0.3141 
     92 H92       -70.7982   25.1234  -75.6706 H         1 UNK         0.0743 
     93 H93       -71.5023   25.3410  -73.2879 H         1 UNK         0.0784 
     94 H94       -73.1847   25.4726  -73.7792 H         1 UNK         0.0784 
     95 H95       -72.2969   23.9738  -74.0544 H         1 UNK         0.0784 
     96 H96       -73.5824   24.7139  -76.1282 H         1 UNK         0.3213 
     97 H97       -73.4232   25.0601  -79.7106 H         1 UNK         0.0855 
     98 H98       -73.8719   22.7123  -77.7898 H         1 UNK         0.0814 
     99 H99       -72.7051   22.7590  -79.1027 H         1 UNK         0.0814 
    100 H100      -74.4250   22.8024  -79.4593 H         1 UNK         0.0814 
    101 H101      -75.5903   24.5380  -77.8856 H         1 UNK         0.3105 
    102 H102      -76.6476   27.9279  -77.5685 H         1 UNK         0.0547 
    103 H103      -77.6753   27.1626  -79.7094 H         1 UNK         0.0837 
    104 H104      -78.7852   26.9530  -78.3637 H         1 UNK         0.0837 
    105 H105      -77.9350   25.5616  -79.0311 H         1 UNK         0.0837 
    106 H106      -77.7710   25.5564  -76.5183 H         1 UNK         0.3020 
    107 H107      -75.6889   25.3373  -73.5868 H         1 UNK         0.1245 
    108 H108      -78.6407   25.9551  -74.0199 H         1 UNK         0.0781 
    109 H109      -77.5490   27.0827  -73.3062 H         1 UNK         0.0781 
    110 H110      -75.9897   26.0973  -70.8845 H         1 UNK         0.0836 
    111 H111      -77.2346   25.9430  -69.6708 H         1 UNK         0.0836 
    112 H112      -77.8283   23.7089  -74.5562 H         1 UNK         0.3022 
    113 H113      -75.8369   21.4194  -76.4313 H         1 UNK         0.0747 
    114 H114      -76.9138   19.8285  -74.8569 H         1 UNK         0.0793 
    115 H115      -75.6227   20.6998  -74.0477 H         1 UNK         0.0793 
    116 H116      -77.2968   21.1427  -73.7440 H         1 UNK         0.0793 
    117 H117      -78.6349   21.5344  -75.8155 H         1 UNK         0.3047 
    118 H118      -79.6107   23.5198  -78.6216 H         1 UNK         0.0822 
    119 H119      -81.0492   21.5395  -78.9868 H         1 UNK         0.0807 
    120 H120      -80.0458   20.5670  -77.9105 H         1 UNK         0.0807 
    121 H121      -79.3935   21.1632  -79.4304 H         1 UNK         0.0807 
    122 H122      -81.1624   22.3566  -76.5449 H         1 UNK         0.2946 
    123 H123      -82.3587   24.1781  -75.2262 H         1 UNK         0.1144 
    124 H124      -79.9552   23.5044  -73.3967 H         1 UNK         0.0793 
    125 H125      -81.0242   22.3118  -74.1193 H         1 UNK         0.0793 
    126 H126      -81.6462   23.4165  -72.9190 H         1 UNK         0.0793 
    127 H127      -80.5466   26.2437  -75.0170 H         1 UNK         0.2896 
@<TRIPOS>BOND
     1    1    2 1    
     2    1   67 1    
     3    1   68 1    
     4    1   69 1    
     5    2    3 2    
     6    2    4 am   BACKBONE|DICT|INTERRES
     7    4    5 1    
     8    4   70 1    
     9    5    6 1    
    10    5   65 1    
    11    5   71 1    
    12    6    7 1    
    13    6   72 1    
    14    6   73 1    
    15    7    8 1    
    16    8    9 1    
    17    8   74 1    
    18    8   75 1    
    19    9   10 ar   
    20    9   14 ar   
    21   10   11 ar   
    22   10   76 1    
    23   11   12 ar   
    24   11   48 1    
    25   12   13 ar   
    26   12   77 1    
    27   13   14 ar   
    28   13   15 1    
    29   14   78 1    
    30   15   16 1    
    31   15   79 1    
    32   15   80 1    
    33   16   17 1    
    34   17   18 1    
    35   17   81 1    
    36   17   82 1    
    37   18   19 1    
    38   18   22 1    
    39   18   83 1    
    40   19   20 am   BACKBONE|DICT|INTERRES
    41   19   21 2    
    42   20   84 1    
    43   20   85 1    
    44   22   23 am   BACKBONE|DICT|INTERRES
    45   22   86 1    
    46   23   24 2    
    47   23   25 1    
    48   25   26 1    
    49   25   27 1    
    50   25   87 1    
    51   26   88 1    
    52   26   89 1    
    53   26   90 1    
    54   27   28 am   BACKBONE|DICT|INTERRES
    55   27   91 1    
    56   28   29 2    
    57   28   30 1    
    58   30   31 1    
    59   30   32 1    
    60   30   92 1    
    61   31   93 1    
    62   31   94 1    
    63   31   95 1    
    64   32   33 am   BACKBONE|DICT|INTERRES
    65   32   96 1    
    66   33   34 2    
    67   33   35 1    
    68   35   36 1    
    69   35   37 1    
    70   35   97 1    
    71   36   98 1    
    72   36   99 1    
    73   36  100 1    
    74   37   38 am   BACKBONE|DICT|INTERRES
    75   37  101 1    
    76   38   39 2    
    77   38   40 1    
    78   40   41 1    
    79   40   42 1    
    80   40  102 1    
    81   41  103 1    
    82   41  104 1    
    83   41  105 1    
    84   42   43 am   BACKBONE|DICT|INTERRES
    85   42  106 1    
    86   43   44 2    
    87   43   45 1    
    88   45   46 1    
    89   45   49 1    
    90   45  107 1    
    91   46   47 1    
    92   46  108 1    
    93   46  109 1    
    94   47   48 1    
    95   48  110 1    
    96   48  111 1    
    97   49   50 am   BACKBONE|DICT|INTERRES
    98   49  112 1    
    99   50   51 2    
   100   50   52 1    
   101   52   53 1    
   102   52   54 1    
   103   52  113 1    
   104   53  114 1    
   105   53  115 1    
   106   53  116 1    
   107   54   55 am   BACKBONE|DICT|INTERRES
   108   54  117 1    
   109   55   56 2    
   110   55   57 1    
   111   57   58 1    
   112   57   59 1    
   113   57  118 1    
   114   58  119 1    
   115   58  120 1    
   116   58  121 1    
   117   59   60 am   BACKBONE|DICT|INTERRES
   118   59  122 1    
   119   60   61 2    
   120   60   62 1    
   121   62   63 1    
   122   62   64 1    
   123   62  123 1    
   124   63  124 1    
   125   63  125 1    
   126   63  126 1    
   127   64   65 am   BACKBONE|DICT|INTERRES
   128   64  127 1    
   129   65   66 2    
@<TRIPOS>SUBSTRUCTURE
     1 UNK         1 GROUP             0       ****    0 ROOT    
