@<TRIPOS>MOLECULE
3R135
127   129    1
SMALL
USER_CHARGES


@<TRIPOS>ATOM
      1 CA        -79.2817   32.3221  -73.5017 C.3       0 UNK        -0.1998 
      2 C         -79.8901   30.9288  -73.5561 C.2       0 UNK         0.4909 
      3 O         -81.0146   30.7798  -74.0339 O.2       0 UNK        -0.5240 
      4 N         -79.1556   29.9118  -73.0769 N.am      1 UNK        -0.4739 
      5 CA        -79.5581   28.4944  -73.0428 C.3       1 UNK         0.0864 
      6 C6        -80.7897   28.2653  -72.1174 C.3       11 UNK        -0.0881 
      7 S7        -80.8192   26.6249  -71.3172 S.3       11 UNK        -0.2682 
      8 C8        -80.1321   26.9893  -69.6705 C.3       11 UNK         0.0289 
      9 C9        -78.6319   27.2238  -69.7396 C.ar      11 UNK        -0.0687 
     10 C10       -77.7663   26.1387  -69.9002 C.ar      11 UNK        -0.0823 
     11 C11       -76.3877   26.3404  -70.0129 C.ar      11 UNK        -0.0830 
     12 C12       -75.8739   27.6373  -69.9325 C.ar      11 UNK        -0.1021 
     13 C13       -76.7312   28.7300  -69.7759 C.ar      11 UNK        -0.0753 
     14 C14       -78.1091   28.5183  -69.6712 C.ar      11 UNK        -0.0933 
     15 C15       -76.1714   30.1428  -69.7544 C.3       11 UNK         0.0166 
     16 S16       -76.4404   30.9870  -71.3438 S.3       11 UNK        -0.2615 
     17 C17       -75.3848   30.0099  -72.4672 C.3       11 UNK        -0.0865 
     18 CA        -75.4068   30.5295  -73.9304 C.3       10 UNK         0.0862 
     19 C         -74.4958   31.7823  -74.1239 C.2       10 UNK         0.5551 
     20 N         -73.3783   31.6946  -74.8375 N.am      10 UNK        -0.7319 
     21 O         -74.8183   32.8610  -73.6340 O.2       10 UNK        -0.5018 
     22 N         -75.1313   29.4333  -74.8696 N.am      10 UNK        -0.4509 
     23 C         -75.3834   29.4669  -76.1849 C.2       10 UNK         0.4899 
     24 O         -76.0540   30.3467  -76.7254 O.2       10 UNK        -0.4839 
     25 CA        -74.7886   28.3259  -77.0362 C.3       9 UNK         0.0222 
     26 CB        -74.4394   28.7751  -78.4695 C.3       9 UNK        -0.1966 
     27 N         -73.6447   27.6545  -76.4052 N.am      9 UNK        -0.4218 
     28 C         -72.4627   28.1841  -76.0520 C.2       9 UNK         0.5020 
     29 O         -72.1585   29.3629  -76.2368 O.2       9 UNK        -0.5274 
     30 CA        -71.4733   27.2656  -75.3170 C.3       8 UNK         0.0270 
     31 CB        -71.6596   27.4118  -73.7968 C.3       8 UNK        -0.1976 
     32 N         -71.6526   25.8583  -75.6843 N.am      8 UNK        -0.4313 
     33 C         -70.7948   25.1332  -76.4143 C.2       8 UNK         0.5041 
     34 O         -69.7138   25.5565  -76.8267 O.2       8 UNK        -0.5577 
     35 CA        -71.2045   23.6838  -76.7458 C.3       7 UNK         0.0284 
     36 CB        -70.6560   22.7161  -75.6845 C.3       7 UNK        -0.1958 
     37 N         -72.6538   23.4983  -76.8657 N.am      7 UNK        -0.4454 
     38 C         -73.4133   24.0371  -77.8294 C.2       7 UNK         0.5089 
     39 O         -72.9576   24.6711  -78.7812 O.2       7 UNK        -0.5125 
     40 CA        -74.9410   23.8653  -77.7120 C.3       6 UNK         0.0408 
     41 CB        -75.4119   22.7228  -78.6258 C.3       6 UNK        -0.1791 
     42 N         -75.4862   23.6568  -76.3604 N.am      6 UNK        -0.4762 
     43 C         -75.2657   24.4246  -75.2797 C.2       6 UNK         0.5007 
     44 O         -74.4030   25.3016  -75.2421 O.2       6 UNK        -0.5032 
     45 CA        -76.1868   24.2034  -74.0644 C.3       5 UNK         0.0783 
     46 C46       -76.1296   25.3540  -73.0281 C.3       11 UNK        -0.0857 
     47 S47       -74.6825   25.2525  -71.9175 S.3       11 UNK        -0.2512 
     48 C48       -75.4601   25.1604  -70.2698 C.3       11 UNK         0.0225 
     49 N         -77.5512   24.0184  -74.5505 N.am      5 UNK        -0.4615 
     50 C         -78.4258   23.1096  -74.1038 C.2       4 UNK         0.5053 
     51 O         -78.1694   22.3053  -73.2078 O.2       4 UNK        -0.5105 
     52 CA        -79.8218   23.0789  -74.7594 C.3       4 UNK         0.0263 
     53 CB        -80.8960   23.5617  -73.7729 C.3       4 UNK        -0.1981 
     54 N         -79.9031   23.8755  -75.9880 N.am      4 UNK        -0.4224 
     55 C         -79.3615   23.5082  -77.1586 C.2       3 UNK         0.4895 
     56 O         -78.8211   22.4172  -77.3409 O.2       3 UNK        -0.5091 
     57 CA        -79.3872   24.5261  -78.3151 C.3       3 UNK         0.0250 
     58 CB        -80.4968   24.1691  -79.3171 C.3       3 UNK        -0.1996 
     59 N         -79.5387   25.9294  -77.9112 N.am      3 UNK        -0.4254 
     60 C         -78.6974   26.6130  -77.1222 C.2       2 UNK         0.5004 
     61 O         -77.7094   26.1098  -76.5878 O.2       2 UNK        -0.5226 
     62 CA        -79.0032   28.1016  -76.8667 C.3       2 UNK         0.0269 
     63 CB        -80.3219   28.6011  -77.5009 C.3       2 UNK        -0.1926 
     64 N         -78.9723   28.4333  -75.4369 N.am      2 UNK        -0.4687 
     65 C         -79.7205   27.8880  -74.4624 C.2       1 UNK         0.5165 
     66 O         -80.5151   26.9662  -74.6594 O.2       1 UNK        -0.5079 
     67 H67       -79.3920   32.8173  -74.4661 H         1 UNK         0.0900 
     68 H68       -79.7914   32.9238  -72.7500 H         1 UNK         0.0900 
     69 H69       -78.2208   32.3013  -73.2588 H         1 UNK         0.0900 
     70 H70       -78.2554   30.1152  -72.6602 H         1 UNK         0.2959 
     71 H71       -78.7077   27.9698  -72.6038 H         1 UNK         0.1079 
     72 H72       -80.8115   29.0190  -71.3290 H         1 UNK         0.0837 
     73 H73       -81.7219   28.4048  -72.6681 H         1 UNK         0.0837 
     74 H74       -80.6457   27.8468  -69.2330 H         1 UNK         0.0685 
     75 H75       -80.3345   26.1444  -69.0107 H         1 UNK         0.0685 
     76 H76       -78.1743   25.1395  -69.9722 H         1 UNK         0.1434 
     77 H77       -74.8086   27.7960  -70.0310 H         1 UNK         0.1329 
     78 H78       -78.7739   29.3644  -69.5621 H         1 UNK         0.1335 
     79 H79       -75.1056   30.1378  -69.5205 H         1 UNK         0.0680 
     80 H80       -76.6570   30.7148  -68.9624 H         1 UNK         0.0680 
     81 H81       -75.7540   28.9835  -72.4364 H         1 UNK         0.1032 
     82 H82       -74.3662   29.9716  -72.0757 H         1 UNK         0.1032 
     83 H83       -76.4230   30.8608  -74.1503 H         1 UNK         0.0461 
     84 H84       -72.8111   32.5185  -74.9559 H         1 UNK         0.3453 
     85 H85       -73.0931   30.8259  -75.2775 H         1 UNK         0.3453 
     86 H86       -74.5725   28.6710  -74.5177 H         1 UNK         0.2984 
     87 H87       -75.5685   27.5686  -77.1118 H         1 UNK         0.0554 
     88 H88       -75.3236   29.1393  -78.9937 H         1 UNK         0.0847 
     89 H89       -74.0352   27.9489  -79.0548 H         1 UNK         0.0847 
     90 H90       -73.7046   29.5808  -78.4732 H         1 UNK         0.0847 
     91 H91       -73.8376   26.6991  -76.1066 H         1 UNK         0.3141 
     92 H92       -70.4660   27.6018  -75.5713 H         1 UNK         0.0743 
     93 H93       -72.6507   27.0875  -73.4764 H         1 UNK         0.0784 
     94 H94       -70.9242   26.8203  -73.2513 H         1 UNK         0.0784 
     95 H95       -71.5364   28.4497  -73.4839 H         1 UNK         0.0784 
     96 H96       -72.5352   25.4319  -75.4133 H         1 UNK         0.3213 
     97 H97       -70.7534   23.4283  -77.7072 H         1 UNK         0.0855 
     98 H98       -71.0852   22.9089  -74.7004 H         1 UNK         0.0814 
     99 H99       -69.5733   22.8132  -75.5919 H         1 UNK         0.0814 
    100 H100      -70.8647   21.6786  -75.9464 H         1 UNK         0.0814 
    101 H101      -73.1175   22.9896  -76.1272 H         1 UNK         0.3105 
    102 H102      -75.3853   24.7926  -78.0801 H         1 UNK         0.0547 
    103 H103      -76.4985   22.6835  -78.6900 H         1 UNK         0.0837 
    104 H104      -75.0605   21.7531  -78.2715 H         1 UNK         0.0837 
    105 H105      -75.0382   22.8530  -79.6426 H         1 UNK         0.0837 
    106 H106      -76.2174   22.9624  -76.2892 H         1 UNK         0.3020 
    107 H107      -75.8471   23.2815  -73.5867 H         1 UNK         0.1245 
    108 H108      -77.0345   25.3243  -72.4222 H         1 UNK         0.0781 
    109 H109      -76.1438   26.3322  -73.5131 H         1 UNK         0.0781 
    110 H110      -74.6798   25.1422  -69.5078 H         1 UNK         0.0836 
    111 H111      -75.9969   24.2143  -70.1835 H         1 UNK         0.0836 
    112 H112      -77.8192   24.6476  -75.3039 H         1 UNK         0.3022 
    113 H113      -80.0376   22.0379  -75.0089 H         1 UNK         0.0747 
    114 H114      -81.8944   23.4923  -74.2047 H         1 UNK         0.0793 
    115 H115      -80.8934   22.9595  -72.8633 H         1 UNK         0.0793 
    116 H116      -80.7298   24.5967  -73.4764 H         1 UNK         0.0793 
    117 H117      -80.3041   24.8012  -75.9039 H         1 UNK         0.3047 
    118 H118      -78.4263   24.4432  -78.8273 H         1 UNK         0.0822 
    119 H119      -80.4581   24.8088  -80.1990 H         1 UNK         0.0807 
    120 H120      -81.4882   24.2664  -78.8728 H         1 UNK         0.0807 
    121 H121      -80.3948   23.1394  -79.6635 H         1 UNK         0.0807 
    122 H122      -80.3384   26.4192  -78.2856 H         1 UNK         0.2946 
    123 H123      -78.1867   28.6548  -77.3327 H         1 UNK         0.1144 
    124 H124      -81.1933   28.0735  -77.1109 H         1 UNK         0.0793 
    125 H125      -80.3136   28.4842  -78.5853 H         1 UNK         0.0793 
    126 H126      -80.4697   29.6627  -77.3010 H         1 UNK         0.0793 
    127 H127      -78.3392   29.1754  -75.1758 H         1 UNK         0.2896 
@<TRIPOS>BOND
     1    1    2 1    
     2    1   67 1    
     3    1   68 1    
     4    1   69 1    
     5    2    3 2    
     6    2    4 am   BACKBONE|DICT|INTERRES
     7    4    5 1    
     8    4   70 1    
     9    5    6 1    
    10    5   65 1    
    11    5   71 1    
    12    6    7 1    
    13    6   72 1    
    14    6   73 1    
    15    7    8 1    
    16    8    9 1    
    17    8   74 1    
    18    8   75 1    
    19    9   10 ar   
    20    9   14 ar   
    21   10   11 ar   
    22   10   76 1    
    23   11   12 ar   
    24   11   48 1    
    25   12   13 ar   
    26   12   77 1    
    27   13   14 ar   
    28   13   15 1    
    29   14   78 1    
    30   15   16 1    
    31   15   79 1    
    32   15   80 1    
    33   16   17 1    
    34   17   18 1    
    35   17   81 1    
    36   17   82 1    
    37   18   19 1    
    38   18   22 1    
    39   18   83 1    
    40   19   20 am   BACKBONE|DICT|INTERRES
    41   19   21 2    
    42   20   84 1    
    43   20   85 1    
    44   22   23 am   BACKBONE|DICT|INTERRES
    45   22   86 1    
    46   23   24 2    
    47   23   25 1    
    48   25   26 1    
    49   25   27 1    
    50   25   87 1    
    51   26   88 1    
    52   26   89 1    
    53   26   90 1    
    54   27   28 am   BACKBONE|DICT|INTERRES
    55   27   91 1    
    56   28   29 2    
    57   28   30 1    
    58   30   31 1    
    59   30   32 1    
    60   30   92 1    
    61   31   93 1    
    62   31   94 1    
    63   31   95 1    
    64   32   33 am   BACKBONE|DICT|INTERRES
    65   32   96 1    
    66   33   34 2    
    67   33   35 1    
    68   35   36 1    
    69   35   37 1    
    70   35   97 1    
    71   36   98 1    
    72   36   99 1    
    73   36  100 1    
    74   37   38 am   BACKBONE|DICT|INTERRES
    75   37  101 1    
    76   38   39 2    
    77   38   40 1    
    78   40   41 1    
    79   40   42 1    
    80   40  102 1    
    81   41  103 1    
    82   41  104 1    
    83   41  105 1    
    84   42   43 am   BACKBONE|DICT|INTERRES
    85   42  106 1    
    86   43   44 2    
    87   43   45 1    
    88   45   46 1    
    89   45   49 1    
    90   45  107 1    
    91   46   47 1    
    92   46  108 1    
    93   46  109 1    
    94   47   48 1    
    95   48  110 1    
    96   48  111 1    
    97   49   50 am   BACKBONE|DICT|INTERRES
    98   49  112 1    
    99   50   51 2    
   100   50   52 1    
   101   52   53 1    
   102   52   54 1    
   103   52  113 1    
   104   53  114 1    
   105   53  115 1    
   106   53  116 1    
   107   54   55 am   BACKBONE|DICT|INTERRES
   108   54  117 1    
   109   55   56 2    
   110   55   57 1    
   111   57   58 1    
   112   57   59 1    
   113   57  118 1    
   114   58  119 1    
   115   58  120 1    
   116   58  121 1    
   117   59   60 am   BACKBONE|DICT|INTERRES
   118   59  122 1    
   119   60   61 2    
   120   60   62 1    
   121   62   63 1    
   122   62   64 1    
   123   62  123 1    
   124   63  124 1    
   125   63  125 1    
   126   63  126 1    
   127   64   65 am   BACKBONE|DICT|INTERRES
   128   64  127 1    
   129   65   66 2    
@<TRIPOS>SUBSTRUCTURE
     1 UNK         1 GROUP             0       ****    0 ROOT    
