@<TRIPOS>MOLECULE
3R135
127   129    1
SMALL
USER_CHARGES


@<TRIPOS>ATOM
      1 CA        -84.3006   28.0715  -71.6599 C.3       0 UNK        -0.1998 
      2 C         -83.7543   28.1596  -73.0769 C.2       0 UNK         0.4909 
      3 O         -84.5312   28.2119  -74.0308 O.2       0 UNK        -0.5240 
      4 N         -82.4225   28.1789  -73.2199 N.am      1 UNK        -0.4739 
      5 CA        -81.7201   28.2447  -74.5087 C.3       1 UNK         0.0864 
      6 C6        -80.2328   28.6458  -74.3395 C.3       11 UNK        -0.0881 
      7 S7        -80.0290   30.3742  -73.7920 S.3       11 UNK        -0.2682 
      8 C8        -79.9034   30.2257  -71.9814 C.3       11 UNK         0.0289 
      9 C9        -78.6144   29.5537  -71.5301 C.ar      11 UNK        -0.0687 
     10 C10       -78.6243   28.2230  -71.0985 C.ar      11 UNK        -0.0823 
     11 C11       -77.4551   27.6229  -70.6222 C.ar      11 UNK        -0.0830 
     12 C12       -76.2716   28.3663  -70.5763 C.ar      11 UNK        -0.1021 
     13 C13       -76.2462   29.6937  -71.0134 C.ar      11 UNK        -0.0753 
     14 C14       -77.4204   30.2814  -71.4937 C.ar      11 UNK        -0.0933 
     15 C15       -74.9584   30.4982  -70.9230 C.3       11 UNK         0.0166 
     16 S16       -73.7839   30.0414  -72.2350 S.3       11 UNK        -0.2615 
     17 C17       -72.3166   31.0116  -71.7378 C.3       11 UNK        -0.0865 
     18 CA        -71.8557   32.0283  -72.8276 C.3       10 UNK         0.0862 
     19 C         -70.7245   32.9843  -72.3343 C.2       10 UNK         0.5551 
     20 N         -70.8601   33.5637  -71.1484 N.am      10 UNK        -0.7319 
     21 O         -69.7430   33.2491  -73.0271 O.2       10 UNK        -0.5018 
     22 N         -71.5535   31.3901  -74.1227 N.am      10 UNK        -0.4509 
     23 C         -70.6142   30.4633  -74.3500 C.2       10 UNK         0.4899 
     24 O         -69.8867   29.9736  -73.4826 O.2       10 UNK        -0.4839 
     25 CA        -70.4447   30.0073  -75.8067 C.3       9 UNK         0.0222 
     26 CB        -69.0983   30.4844  -76.3765 C.3       9 UNK        -0.1966 
     27 N         -70.5171   28.5485  -75.8776 N.am      9 UNK        -0.4218 
     28 C         -71.6628   27.8574  -75.8656 C.2       9 UNK         0.5020 
     29 O         -72.7790   28.3809  -75.8968 O.2       9 UNK        -0.5274 
     30 CA        -71.5348   26.3307  -75.7650 C.3       8 UNK         0.0270 
     31 CB        -71.5448   25.8892  -74.2917 C.3       8 UNK        -0.1976 
     32 N         -72.6459   25.6890  -76.4669 N.am      8 UNK        -0.4313 
     33 C         -72.6182   25.3369  -77.7604 C.2       8 UNK         0.5041 
     34 O         -71.6137   25.4302  -78.4683 O.2       8 UNK        -0.5577 
     35 CA        -73.9125   24.7788  -78.3861 C.3       7 UNK         0.0284 
     36 CB        -73.8715   23.2421  -78.4174 C.3       7 UNK        -0.1958 
     37 N         -75.1321   25.2073  -77.7010 N.am      7 UNK        -0.4454 
     38 C         -75.5858   26.4667  -77.6412 C.2       7 UNK         0.5089 
     39 O         -75.0994   27.3987  -78.2819 O.2       7 UNK        -0.5125 
     40 CA        -76.7794   26.7385  -76.7045 C.3       6 UNK         0.0408 
     41 CB        -78.0684   26.8834  -77.5280 C.3       6 UNK        -0.1791 
     42 N         -76.9848   25.7201  -75.6659 N.am      6 UNK        -0.4762 
     43 C         -76.1083   25.3854  -74.7047 C.2       6 UNK         0.5007 
     44 O         -74.9853   25.8775  -74.6062 O.2       6 UNK        -0.5032 
     45 CA        -76.5307   24.2646  -73.7388 C.3       5 UNK         0.0783 
     46 C46       -77.4072   24.7937  -72.5710 C.3       11 UNK        -0.0857 
     47 S47       -76.4028   25.0881  -71.0789 S.3       11 UNK        -0.2512 
     48 C48       -77.4773   26.1899  -70.1083 C.3       11 UNK         0.0225 
     49 N         -77.1883   23.1838  -74.4768 N.am      5 UNK        -0.4615 
     50 C         -76.5564   22.1040  -74.9570 C.2       4 UNK         0.5053 
     51 O         -75.3563   21.8836  -74.7940 O.2       4 UNK        -0.5105 
     52 CA        -77.3949   21.0905  -75.7570 C.3       4 UNK         0.0263 
     53 CB        -77.9176   19.9799  -74.8317 C.3       4 UNK        -0.1981 
     54 N         -78.5221   21.6932  -76.4710 N.am      4 UNK        -0.4224 
     55 C         -78.4040   22.5544  -77.4908 C.2       3 UNK         0.4895 
     56 O         -77.3272   22.9194  -77.9618 O.2       3 UNK        -0.5091 
     57 CA        -79.7101   23.1355  -78.0587 C.3       3 UNK         0.0250 
     58 CB        -80.2715   22.2132  -79.1528 C.3       3 UNK        -0.1996 
     59 N         -80.7597   23.4101  -77.0666 N.am      3 UNK        -0.4254 
     60 C         -80.6193   24.1430  -75.9524 C.2       2 UNK         0.5004 
     61 O         -79.5393   24.5605  -75.5271 O.2       2 UNK        -0.5226 
     62 CA        -81.8998   24.4381  -75.1552 C.3       2 UNK         0.0269 
     63 CB        -82.0642   23.4162  -74.0190 C.3       2 UNK        -0.1926 
     64 N         -81.8812   25.7883  -74.5852 N.am      2 UNK        -0.4687 
     65 C         -81.8342   26.9247  -75.2988 C.2       1 UNK         0.5165 
     66 O         -81.8847   26.9621  -76.5294 O.2       1 UNK        -0.5079 
     67 H67       -83.5050   28.0412  -70.9157 H         1 UNK         0.0900 
     68 H68       -84.9054   27.1723  -71.5465 H         1 UNK         0.0900 
     69 H69       -84.9304   28.9348  -71.4468 H         1 UNK         0.0900 
     70 H70       -81.8372   28.1413  -72.3996 H         1 UNK         0.2959 
     71 H71       -82.2094   29.0097  -75.1166 H         1 UNK         0.1079 
     72 H72       -79.7116   27.9637  -73.6669 H         1 UNK         0.0837 
     73 H73       -79.7102   28.5715  -75.2945 H         1 UNK         0.0837 
     74 H74       -79.9502   31.2275  -71.5518 H         1 UNK         0.0685 
     75 H75       -80.7733   29.6979  -71.5908 H         1 UNK         0.0685 
     76 H76       -79.5470   27.6599  -71.1134 H         1 UNK         0.1434 
     77 H77       -75.3667   27.9103  -70.1977 H         1 UNK         0.1329 
     78 H78       -77.4123   31.3118  -71.8223 H         1 UNK         0.1335 
     79 H79       -75.1670   31.5676  -70.9841 H         1 UNK         0.0680 
     80 H80       -74.4986   30.3264  -69.9484 H         1 UNK         0.0680 
     81 H81       -71.5125   30.3174  -71.4904 H         1 UNK         0.1032 
     82 H82       -72.5462   31.5276  -70.8052 H         1 UNK         0.1032 
     83 H83       -72.6999   32.6870  -73.0352 H         1 UNK         0.0461 
     84 H84       -70.1405   34.1952  -70.8320 H         1 UNK         0.3453 
     85 H85       -71.6704   33.4040  -70.5715 H         1 UNK         0.3453 
     86 H86       -72.0884   31.7339  -74.9069 H         1 UNK         0.2984 
     87 H87       -71.2415   30.4362  -76.4188 H         1 UNK         0.0554 
     88 H88       -68.9786   30.1850  -77.4179 H         1 UNK         0.0847 
     89 H89       -68.2538   30.0856  -75.8126 H         1 UNK         0.0847 
     90 H90       -69.0261   31.5724  -76.3417 H         1 UNK         0.0847 
     91 H91       -69.6430   28.0490  -75.7960 H         1 UNK         0.3141 
     92 H92       -70.5874   26.0193  -76.2106 H         1 UNK         0.0743 
     93 H93       -72.4477   26.2202  -73.7766 H         1 UNK         0.0784 
     94 H94       -71.4854   24.8045  -74.2010 H         1 UNK         0.0784 
     95 H95       -70.6939   26.3082  -73.7530 H         1 UNK         0.0784 
     96 H96       -73.5310   25.6754  -75.9673 H         1 UNK         0.3213 
     97 H97       -73.9613   25.1433  -79.4143 H         1 UNK         0.0855 
     98 H98       -73.8679   22.8180  -77.4122 H         1 UNK         0.0814 
     99 H99       -72.9758   22.8844  -78.9271 H         1 UNK         0.0814 
    100 H100      -74.7302   22.8333  -78.9502 H         1 UNK         0.0814 
    101 H101      -75.6527   24.4955  -77.2058 H         1 UNK         0.3105 
    102 H102      -76.5876   27.6844  -76.1942 H         1 UNK         0.0547 
    103 H103      -78.0017   27.7325  -78.2092 H         1 UNK         0.0837 
    104 H104      -78.2539   25.9971  -78.1331 H         1 UNK         0.0837 
    105 H105      -78.9400   27.0414  -76.8945 H         1 UNK         0.0837 
    106 H106      -77.8960   25.2627  -75.6631 H         1 UNK         0.3020 
    107 H107      -75.6051   23.8640  -73.3177 H         1 UNK         0.1245 
    108 H108      -78.1677   24.0601  -72.2979 H         1 UNK         0.0781 
    109 H109      -77.9559   25.6985  -72.8420 H         1 UNK         0.0781 
    110 H110      -77.1360   26.1853  -69.0722 H         1 UNK         0.0836 
    111 H111      -78.4914   25.7872  -70.0958 H         1 UNK         0.0836 
    112 H112      -78.1609   23.3367  -74.7199 H         1 UNK         0.3022 
    113 H113      -76.7352   20.6354  -76.4992 H         1 UNK         0.0747 
    114 H114      -78.4410   19.2069  -75.3948 H         1 UNK         0.0793 
    115 H115      -77.0959   19.4930  -74.3043 H         1 UNK         0.0793 
    116 H116      -78.6024   20.3704  -74.0778 H         1 UNK         0.0793 
    117 H117      -79.4494   21.4570  -76.1493 H         1 UNK         0.3047 
    118 H118      -79.4598   24.0886  -78.5258 H         1 UNK         0.0822 
    119 H119      -81.1227   22.6686  -79.6593 H         1 UNK         0.0807 
    120 H120      -80.5949   21.2538  -78.7471 H         1 UNK         0.0807 
    121 H121      -79.5182   22.0073  -79.9150 H         1 UNK         0.0807 
    122 H122      -81.6860   23.0902  -77.3113 H         1 UNK         0.2946 
    123 H123      -82.7596   24.3696  -75.8254 H         1 UNK         0.1144 
    124 H124      -82.9834   23.5893  -73.4589 H         1 UNK         0.0793 
    125 H125      -81.2301   23.4560  -73.3167 H         1 UNK         0.0793 
    126 H126      -82.1125   22.3989  -74.4099 H         1 UNK         0.0793 
    127 H127      -81.8309   25.8557  -73.5800 H         1 UNK         0.2896 
@<TRIPOS>BOND
     1    1    2 1    
     2    1   67 1    
     3    1   68 1    
     4    1   69 1    
     5    2    3 2    
     6    2    4 am   BACKBONE|DICT|INTERRES
     7    4    5 1    
     8    4   70 1    
     9    5    6 1    
    10    5   65 1    
    11    5   71 1    
    12    6    7 1    
    13    6   72 1    
    14    6   73 1    
    15    7    8 1    
    16    8    9 1    
    17    8   74 1    
    18    8   75 1    
    19    9   10 ar   
    20    9   14 ar   
    21   10   11 ar   
    22   10   76 1    
    23   11   12 ar   
    24   11   48 1    
    25   12   13 ar   
    26   12   77 1    
    27   13   14 ar   
    28   13   15 1    
    29   14   78 1    
    30   15   16 1    
    31   15   79 1    
    32   15   80 1    
    33   16   17 1    
    34   17   18 1    
    35   17   81 1    
    36   17   82 1    
    37   18   19 1    
    38   18   22 1    
    39   18   83 1    
    40   19   20 am   BACKBONE|DICT|INTERRES
    41   19   21 2    
    42   20   84 1    
    43   20   85 1    
    44   22   23 am   BACKBONE|DICT|INTERRES
    45   22   86 1    
    46   23   24 2    
    47   23   25 1    
    48   25   26 1    
    49   25   27 1    
    50   25   87 1    
    51   26   88 1    
    52   26   89 1    
    53   26   90 1    
    54   27   28 am   BACKBONE|DICT|INTERRES
    55   27   91 1    
    56   28   29 2    
    57   28   30 1    
    58   30   31 1    
    59   30   32 1    
    60   30   92 1    
    61   31   93 1    
    62   31   94 1    
    63   31   95 1    
    64   32   33 am   BACKBONE|DICT|INTERRES
    65   32   96 1    
    66   33   34 2    
    67   33   35 1    
    68   35   36 1    
    69   35   37 1    
    70   35   97 1    
    71   36   98 1    
    72   36   99 1    
    73   36  100 1    
    74   37   38 am   BACKBONE|DICT|INTERRES
    75   37  101 1    
    76   38   39 2    
    77   38   40 1    
    78   40   41 1    
    79   40   42 1    
    80   40  102 1    
    81   41  103 1    
    82   41  104 1    
    83   41  105 1    
    84   42   43 am   BACKBONE|DICT|INTERRES
    85   42  106 1    
    86   43   44 2    
    87   43   45 1    
    88   45   46 1    
    89   45   49 1    
    90   45  107 1    
    91   46   47 1    
    92   46  108 1    
    93   46  109 1    
    94   47   48 1    
    95   48  110 1    
    96   48  111 1    
    97   49   50 am   BACKBONE|DICT|INTERRES
    98   49  112 1    
    99   50   51 2    
   100   50   52 1    
   101   52   53 1    
   102   52   54 1    
   103   52  113 1    
   104   53  114 1    
   105   53  115 1    
   106   53  116 1    
   107   54   55 am   BACKBONE|DICT|INTERRES
   108   54  117 1    
   109   55   56 2    
   110   55   57 1    
   111   57   58 1    
   112   57   59 1    
   113   57  118 1    
   114   58  119 1    
   115   58  120 1    
   116   58  121 1    
   117   59   60 am   BACKBONE|DICT|INTERRES
   118   59  122 1    
   119   60   61 2    
   120   60   62 1    
   121   62   63 1    
   122   62   64 1    
   123   62  123 1    
   124   63  124 1    
   125   63  125 1    
   126   63  126 1    
   127   64   65 am   BACKBONE|DICT|INTERRES
   128   64  127 1    
   129   65   66 2    
@<TRIPOS>SUBSTRUCTURE
     1 UNK         1 GROUP             0       ****    0 ROOT    
