@<TRIPOS>MOLECULE
3R135
127   129    1
SMALL
USER_CHARGES


@<TRIPOS>ATOM
      1 CA        -83.5696   23.5360  -71.9261 C.3       0 UNK        -0.1998 
      2 C         -83.3008   24.9978  -72.2513 C.2       0 UNK         0.4909 
      3 O         -84.2346   25.7993  -72.2920 O.2       0 UNK        -0.5240 
      4 N         -82.0328   25.3497  -72.4823 N.am      1 UNK        -0.4739 
      5 CA        -81.5716   26.6900  -72.8358 C.3       1 UNK         0.0864 
      6 C6        -81.3109   27.5478  -71.5723 C.3       11 UNK        -0.0881 
      7 S7        -81.1987   29.3346  -71.9292 S.3       11 UNK        -0.2682 
      8 C8        -79.7202   29.8139  -70.9803 C.3       11 UNK         0.0289 
      9 C9        -78.4256   29.3745  -71.6509 C.ar      11 UNK        -0.0687 
     10 C10       -77.7671   28.2145  -71.2319 C.ar      11 UNK        -0.0823 
     11 C11       -76.5560   27.8328  -71.8165 C.ar      11 UNK        -0.0830 
     12 C12       -75.9977   28.6253  -72.8234 C.ar      11 UNK        -0.1021 
     13 C13       -76.6378   29.7967  -73.2403 C.ar      11 UNK        -0.0753 
     14 C14       -77.8579   30.1581  -72.6598 C.ar      11 UNK        -0.0933 
     15 C15       -76.0023   30.6819  -74.3045 C.3       11 UNK         0.0166 
     16 S16       -75.4880   32.2998  -73.6382 S.3       11 UNK        -0.2615 
     17 C17       -74.1371   31.8212  -72.5077 C.3       11 UNK        -0.0865 
     18 CA        -72.7397   31.8875  -73.1875 C.3       10 UNK         0.0862 
     19 C         -72.0187   33.2443  -72.9281 C.2       10 UNK         0.5551 
     20 N         -70.8541   33.2653  -72.2908 N.am      10 UNK        -0.7319 
     21 O         -72.5199   34.2956  -73.3183 O.2       10 UNK        -0.5018 
     22 N         -71.9453   30.6888  -72.8717 N.am      10 UNK        -0.4509 
     23 C         -70.9591   30.2045  -73.6358 C.2       10 UNK         0.4899 
     24 O         -70.5718   30.7392  -74.6760 O.2       10 UNK        -0.4839 
     25 CA        -70.2830   28.8955  -73.1829 C.3       9 UNK         0.0222 
     26 CB        -70.7059   28.3997  -71.7791 C.3       9 UNK        -0.1966 
     27 N         -70.4624   27.8466  -74.1936 N.am      9 UNK        -0.4218 
     28 C         -71.6254   27.3268  -74.6134 C.2       9 UNK         0.5020 
     29 O         -72.7251   27.5879  -74.1180 O.2       9 UNK        -0.5274 
     30 CA        -71.5315   26.3125  -75.7650 C.3       8 UNK         0.0270 
     31 CB        -71.2449   24.9056  -75.2163 C.3       8 UNK        -0.1976 
     32 N         -72.7686   26.2916  -76.5502 N.am      8 UNK        -0.4313 
     33 C         -73.1307   27.2615  -77.4048 C.2       8 UNK         0.5041 
     34 O         -72.3990   28.2131  -77.6861 O.2       8 UNK        -0.5577 
     35 CA        -74.5364   27.1878  -78.0428 C.3       7 UNK         0.0284 
     36 CB        -74.5651   27.7514  -79.4795 C.3       7 UNK        -0.1958 
     37 N         -75.1645   25.8638  -77.9927 N.am      7 UNK        -0.4454 
     38 C         -74.7332   24.7221  -78.5491 C.2       7 UNK         0.5089 
     39 O         -73.7333   24.6368  -79.2638 O.2       7 UNK        -0.5125 
     40 CA        -75.5523   23.4591  -78.2088 C.3       6 UNK         0.0408 
     41 CB        -74.7741   22.1530  -78.4700 C.3       6 UNK        -0.1791 
     42 N         -76.0857   23.4755  -76.8395 N.am      6 UNK        -0.4762 
     43 C         -75.3921   23.5942  -75.6946 C.2       6 UNK         0.5007 
     44 O         -74.1653   23.6775  -75.6603 O.2       6 UNK        -0.5032 
     45 CA        -76.1786   23.6764  -74.3663 C.3       5 UNK         0.0783 
     46 C46       -75.9269   25.0382  -73.6716 C.3       11 UNK        -0.0857 
     47 S47       -76.5930   25.0654  -71.9763 S.3       11 UNK        -0.2512 
     48 C48       -75.8356   26.5858  -71.3257 C.3       11 UNK         0.0225 
     49 N         -77.6123   23.4187  -74.5401 N.am      5 UNK        -0.4615 
     50 C         -78.1604   22.2171  -74.7612 C.2       4 UNK         0.5053 
     51 O         -77.5292   21.1607  -74.7474 O.2       4 UNK        -0.5105 
     52 CA        -79.6570   22.2035  -75.1116 C.3       4 UNK         0.0263 
     53 CB        -80.5161   22.1195  -73.8401 C.3       4 UNK        -0.1981 
     54 N         -80.0385   23.3815  -75.8988 N.am      4 UNK        -0.4224 
     55 C         -79.7265   23.5553  -77.1923 C.2       3 UNK         0.4895 
     56 O         -79.1358   22.7154  -77.8705 O.2       3 UNK        -0.5091 
     57 CA        -80.1022   24.9018  -77.8343 C.3       3 UNK         0.0250 
     58 CB        -81.5393   24.8581  -78.3772 C.3       3 UNK        -0.1996 
     59 N         -79.9606   26.0351  -76.9181 N.am      3 UNK        -0.4254 
     60 C         -78.7929   26.4981  -76.4490 C.2       2 UNK         0.5004 
     61 O         -77.6945   26.0473  -76.7704 O.2       2 UNK        -0.5226 
     62 CA        -78.8640   27.6374  -75.4195 C.3       2 UNK         0.0269 
     63 CB        -78.8598   28.9955  -76.1375 C.3       2 UNK        -0.1926 
     64 N         -80.0239   27.5667  -74.5235 N.am      2 UNK        -0.4687 
     65 C         -80.3271   26.5324  -73.7274 C.2       1 UNK         0.5165 
     66 O         -79.6882   25.4755  -73.7068 O.2       1 UNK        -0.5079 
     67 H67       -84.1785   23.4574  -71.0258 H         1 UNK         0.0900 
     68 H68       -84.1094   23.0622  -72.7455 H         1 UNK         0.0900 
     69 H69       -82.6478   22.9802  -71.7568 H         1 UNK         0.0900 
     70 H70       -81.2928   24.6591  -72.4835 H         1 UNK         0.2959 
     71 H71       -82.3462   27.1679  -73.4406 H         1 UNK         0.1079 
     72 H72       -80.4241   27.1963  -71.0442 H         1 UNK         0.0837 
     73 H73       -82.1356   27.4261  -70.8682 H         1 UNK         0.0837 
     74 H74       -79.7881   29.4094  -69.9691 H         1 UNK         0.0685 
     75 H75       -79.7168   30.8992  -70.8689 H         1 UNK         0.0685 
     76 H76       -78.1883   27.6096  -70.4410 H         1 UNK         0.1434 
     77 H77       -75.0543   28.3401  -73.2686 H         1 UNK         0.1329 
     78 H78       -78.3536   31.0650  -72.9781 H         1 UNK         0.1335 
     79 H79       -76.7174   30.8484  -75.1101 H         1 UNK         0.0680 
     80 H80       -75.1388   30.1906  -74.7568 H         1 UNK         0.0680 
     81 H81       -74.3436   30.8182  -72.1340 H         1 UNK         0.1032 
     82 H82       -74.1832   32.4579  -71.6218 H         1 UNK         0.1032 
     83 H83       -72.8952   31.8564  -74.2680 H         1 UNK         0.0461 
     84 H84       -70.3927   34.1472  -72.1314 H         1 UNK         0.3453 
     85 H85       -70.4320   32.4084  -71.9718 H         1 UNK         0.3453 
     86 H86       -72.1914   30.1912  -72.0293 H         1 UNK         0.2984 
     87 H87       -69.2130   29.1051  -73.1447 H         1 UNK         0.0554 
     88 H88       -70.4903   29.1478  -71.0151 H         1 UNK         0.0847 
     89 H89       -70.1550   27.5004  -71.5035 H         1 UNK         0.0847 
     90 H90       -71.7681   28.1600  -71.7203 H         1 UNK         0.0847 
     91 H91       -69.6204   27.5716  -74.6804 H         1 UNK         0.3141 
     92 H92       -70.7115   26.6007  -76.4264 H         1 UNK         0.0743 
     93 H93       -70.2693   24.8665  -74.7303 H         1 UNK         0.0784 
     94 H94       -71.2421   24.1597  -76.0115 H         1 UNK         0.0784 
     95 H95       -71.9865   24.6039  -74.4755 H         1 UNK         0.0784 
     96 H96       -73.4139   25.5348  -76.3537 H         1 UNK         0.3213 
     97 H97       -75.1679   27.8315  -77.4282 H         1 UNK         0.0855 
     98 H98       -73.9010   27.1981  -80.1440 H         1 UNK         0.0814 
     99 H99       -74.2471   28.7945  -79.4987 H         1 UNK         0.0814 
    100 H100      -75.5699   27.7143  -79.9001 H         1 UNK         0.0814 
    101 H101      -76.0306   25.8194  -77.4540 H         1 UNK         0.3105 
    102 H102      -76.4181   23.4693  -78.8724 H         1 UNK         0.0547 
    103 H103      -75.3789   21.2777  -78.2334 H         1 UNK         0.0837 
    104 H104      -73.8606   22.1008  -77.8769 H         1 UNK         0.0837 
    105 H105      -74.4856   22.0722  -79.5187 H         1 UNK         0.0837 
    106 H106      -77.0944   23.4540  -76.7703 H         1 UNK         0.3020 
    107 H107      -75.7694   22.8900  -73.7280 H         1 UNK         0.1245 
    108 H108      -76.3728   25.8543  -74.2418 H         1 UNK         0.0781 
    109 H109      -74.8574   25.2528  -73.6136 H         1 UNK         0.0781 
    110 H110      -74.7772   26.6168  -71.5907 H         1 UNK         0.0836 
    111 H111      -75.8721   26.5557  -70.2358 H         1 UNK         0.0836 
    112 H112      -78.2222   24.2272  -74.4816 H         1 UNK         0.3022 
    113 H113      -79.8531   21.3121  -75.7118 H         1 UNK         0.0747 
    114 H114      -81.5802   22.1308  -74.0768 H         1 UNK         0.0793 
    115 H115      -80.3144   21.1938  -73.2997 H         1 UNK         0.0793 
    116 H116      -80.3097   22.9418  -73.1557 H         1 UNK         0.0793 
    117 H117      -80.4590   24.1486  -75.3925 H         1 UNK         0.3047 
    118 H118      -79.4242   25.0649  -78.6752 H         1 UNK         0.0822 
    119 H119      -81.7906   25.7760  -78.9090 H         1 UNK         0.0807 
    120 H120      -82.2709   24.7197  -77.5801 H         1 UNK         0.0807 
    121 H121      -81.6648   24.0340  -79.0812 H         1 UNK         0.0807 
    122 H122      -80.8098   26.4809  -76.6028 H         1 UNK         0.2946 
    123 H123      -77.9708   27.5718  -74.7953 H         1 UNK         0.1144 
    124 H124      -78.8860   29.8215  -75.4275 H         1 UNK         0.0793 
    125 H125      -79.7168   29.1038  -76.8035 H         1 UNK         0.0793 
    126 H126      -77.9590   29.1136  -76.7416 H         1 UNK         0.0793 
    127 H127      -80.5861   28.4033  -74.4522 H         1 UNK         0.2896 
@<TRIPOS>BOND
     1    1    2 1    
     2    1   67 1    
     3    1   68 1    
     4    1   69 1    
     5    2    3 2    
     6    2    4 am   BACKBONE|DICT|INTERRES
     7    4    5 1    
     8    4   70 1    
     9    5    6 1    
    10    5   65 1    
    11    5   71 1    
    12    6    7 1    
    13    6   72 1    
    14    6   73 1    
    15    7    8 1    
    16    8    9 1    
    17    8   74 1    
    18    8   75 1    
    19    9   10 ar   
    20    9   14 ar   
    21   10   11 ar   
    22   10   76 1    
    23   11   12 ar   
    24   11   48 1    
    25   12   13 ar   
    26   12   77 1    
    27   13   14 ar   
    28   13   15 1    
    29   14   78 1    
    30   15   16 1    
    31   15   79 1    
    32   15   80 1    
    33   16   17 1    
    34   17   18 1    
    35   17   81 1    
    36   17   82 1    
    37   18   19 1    
    38   18   22 1    
    39   18   83 1    
    40   19   20 am   BACKBONE|DICT|INTERRES
    41   19   21 2    
    42   20   84 1    
    43   20   85 1    
    44   22   23 am   BACKBONE|DICT|INTERRES
    45   22   86 1    
    46   23   24 2    
    47   23   25 1    
    48   25   26 1    
    49   25   27 1    
    50   25   87 1    
    51   26   88 1    
    52   26   89 1    
    53   26   90 1    
    54   27   28 am   BACKBONE|DICT|INTERRES
    55   27   91 1    
    56   28   29 2    
    57   28   30 1    
    58   30   31 1    
    59   30   32 1    
    60   30   92 1    
    61   31   93 1    
    62   31   94 1    
    63   31   95 1    
    64   32   33 am   BACKBONE|DICT|INTERRES
    65   32   96 1    
    66   33   34 2    
    67   33   35 1    
    68   35   36 1    
    69   35   37 1    
    70   35   97 1    
    71   36   98 1    
    72   36   99 1    
    73   36  100 1    
    74   37   38 am   BACKBONE|DICT|INTERRES
    75   37  101 1    
    76   38   39 2    
    77   38   40 1    
    78   40   41 1    
    79   40   42 1    
    80   40  102 1    
    81   41  103 1    
    82   41  104 1    
    83   41  105 1    
    84   42   43 am   BACKBONE|DICT|INTERRES
    85   42  106 1    
    86   43   44 2    
    87   43   45 1    
    88   45   46 1    
    89   45   49 1    
    90   45  107 1    
    91   46   47 1    
    92   46  108 1    
    93   46  109 1    
    94   47   48 1    
    95   48  110 1    
    96   48  111 1    
    97   49   50 am   BACKBONE|DICT|INTERRES
    98   49  112 1    
    99   50   51 2    
   100   50   52 1    
   101   52   53 1    
   102   52   54 1    
   103   52  113 1    
   104   53  114 1    
   105   53  115 1    
   106   53  116 1    
   107   54   55 am   BACKBONE|DICT|INTERRES
   108   54  117 1    
   109   55   56 2    
   110   55   57 1    
   111   57   58 1    
   112   57   59 1    
   113   57  118 1    
   114   58  119 1    
   115   58  120 1    
   116   58  121 1    
   117   59   60 am   BACKBONE|DICT|INTERRES
   118   59  122 1    
   119   60   61 2    
   120   60   62 1    
   121   62   63 1    
   122   62   64 1    
   123   62  123 1    
   124   63  124 1    
   125   63  125 1    
   126   63  126 1    
   127   64   65 am   BACKBONE|DICT|INTERRES
   128   64  127 1    
   129   65   66 2    
@<TRIPOS>SUBSTRUCTURE
     1 UNK         1 GROUP             0       ****    0 ROOT    
