@<TRIPOS>MOLECULE
3R135
127   129    1
SMALL
USER_CHARGES


@<TRIPOS>ATOM
      1 CA        -84.8932   26.7883  -71.4160 C.3       0 UNK        -0.1998 
      2 C         -83.6257   27.1057  -72.1948 C.2       0 UNK         0.4909 
      3 O         -83.5816   28.1047  -72.9131 O.2       0 UNK        -0.5240 
      4 N         -82.5945   26.2611  -72.0619 N.am      1 UNK        -0.4739 
      5 CA        -81.2930   26.4183  -72.7264 C.3       1 UNK         0.0864 
      6 C6        -80.1758   25.6333  -71.9942 C.3       11 UNK        -0.0881 
      7 S7        -79.8845   26.2024  -70.2849 S.3       11 UNK        -0.2682 
      8 C8        -78.0541   26.2290  -70.2095 C.3       11 UNK         0.0289 
      9 C9        -77.3840   27.5095  -70.7173 C.ar      11 UNK        -0.0687 
     10 C10       -78.0162   28.3908  -71.6014 C.ar      11 UNK        -0.0823 
     11 C11       -77.3739   29.5510  -72.0353 C.ar      11 UNK        -0.0830 
     12 C12       -76.0969   29.8491  -71.5615 C.ar      11 UNK        -0.1021 
     13 C13       -75.4259   28.9692  -70.7035 C.ar      11 UNK        -0.0753 
     14 C14       -76.0824   27.8029  -70.2919 C.ar      11 UNK        -0.0933 
     15 C15       -74.0098   29.2312  -70.1801 C.3       11 UNK         0.0166 
     16 S16       -73.2305   30.8022  -70.7074 S.3       11 UNK        -0.2615 
     17 C17       -72.3321   30.3388  -72.2325 C.3       11 UNK        -0.0865 
     18 CA        -73.1011   30.6033  -73.5629 C.3       10 UNK         0.0862 
     19 C         -73.2074   32.1057  -73.9758 C.2       10 UNK         0.5551 
     20 N         -73.3501   32.4157  -75.2592 N.am      10 UNK        -0.7319 
     21 O         -73.1806   33.0034  -73.1382 O.2       10 UNK        -0.5018 
     22 N         -72.6341   29.7131  -74.6357 N.am      10 UNK        -0.4509 
     23 C         -71.4065   29.7030  -75.1739 C.2       10 UNK         0.4899 
     24 O         -70.5139   30.4987  -74.8764 O.2       10 UNK        -0.4839 
     25 CA        -71.1369   28.5773  -76.1904 C.3       9 UNK         0.0222 
     26 CB        -69.6656   28.5055  -76.6502 C.3       9 UNK        -0.1966 
     27 N         -71.5961   27.2783  -75.6858 N.am      9 UNK        -0.4218 
     28 C         -71.2075   26.6520  -74.5627 C.2       9 UNK         0.5020 
     29 O         -70.2950   27.0434  -73.8335 O.2       9 UNK        -0.5274 
     30 CA        -71.9901   25.3921  -74.1491 C.3       8 UNK         0.0270 
     31 CB        -72.8779   25.7079  -72.9318 C.3       8 UNK        -0.1976 
     32 N         -72.8250   24.8436  -75.2220 N.am      8 UNK        -0.4313 
     33 C         -72.3592   24.1639  -76.2794 C.2       8 UNK         0.5041 
     34 O         -71.1756   23.8579  -76.4285 O.2       8 UNK        -0.5577 
     35 CA        -73.3768   23.7934  -77.3734 C.3       7 UNK         0.0284 
     36 CB        -74.1296   22.5077  -76.9998 C.3       7 UNK        -0.1958 
     37 N         -74.3321   24.8701  -77.6612 N.am      7 UNK        -0.4454 
     38 C         -73.9950   26.0650  -78.1700 C.2       7 UNK         0.5089 
     39 O         -72.8423   26.3907  -78.4512 O.2       7 UNK        -0.5125 
     40 CA        -75.1244   27.0878  -78.3629 C.3       6 UNK         0.0408 
     41 CB        -75.8846   26.8294  -79.6733 C.3       6 UNK        -0.1791 
     42 N         -76.0573   27.0967  -77.2367 N.am      6 UNK        -0.4762 
     43 C         -75.7678   27.5809  -76.0196 C.2       6 UNK         0.5007 
     44 O         -74.6834   28.0862  -75.7241 O.2       6 UNK        -0.5032 
     45 CA        -76.8627   27.4268  -74.9422 C.3       5 UNK         0.0783 
     46 C46       -77.9585   28.5157  -75.0845 C.3       11 UNK        -0.0857 
     47 S47       -77.3779   30.2081  -74.7137 S.3       11 UNK        -0.2512 
     48 C48       -78.0439   30.4747  -73.0393 C.3       11 UNK         0.0225 
     49 N         -77.4441   26.0758  -74.9493 N.am      5 UNK        -0.4615 
     50 C         -76.7463   24.9462  -74.7503 C.2       4 UNK         0.5053 
     51 O         -75.5508   24.9292  -74.4661 O.2       4 UNK        -0.5105 
     52 CA        -77.4631   23.6015  -74.9619 C.3       4 UNK         0.0263 
     53 CB        -78.0516   23.0559  -73.6539 C.3       4 UNK        -0.1981 
     54 N         -78.4965   23.6257  -75.9955 N.am      4 UNK        -0.4224 
     55 C         -78.3055   23.9090  -77.2891 C.2       3 UNK         0.4895 
     56 O         -77.2071   24.2037  -77.7621 O.2       3 UNK        -0.5091 
     57 CA        -79.5416   23.8874  -78.2101 C.3       3 UNK         0.0250 
     58 CB        -79.7982   22.4688  -78.7539 C.3       3 UNK        -0.1996 
     59 N         -80.7580   24.4745  -77.6203 N.am      3 UNK        -0.4254 
     60 C         -81.4782   24.0455  -76.5725 C.2       2 UNK         0.5004 
     61 O         -81.2488   23.0065  -75.9491 O.2       2 UNK        -0.5226 
     62 CA        -82.6042   24.9746  -76.0878 C.3       2 UNK         0.0269 
     63 CB        -83.9743   24.2889  -76.2167 C.3       2 UNK        -0.1926 
     64 N         -82.4028   25.3972  -74.6969 N.am      2 UNK        -0.4687 
     65 C         -81.3217   26.0392  -74.2252 C.2       1 UNK         0.5165 
     66 O         -80.3521   26.3320  -74.9270 O.2       1 UNK        -0.5079 
     67 H67       -85.7309   26.6554  -72.1001 H         1 UNK         0.0900 
     68 H68       -85.1324   27.6083  -70.7394 H         1 UNK         0.0900 
     69 H69       -84.7912   25.8793  -70.8234 H         1 UNK         0.0900 
     70 H70       -82.6770   25.4664  -71.4432 H         1 UNK         0.2959 
     71 H71       -81.0364   27.4788  -72.6991 H         1 UNK         0.1079 
     72 H72       -80.4226   24.5712  -71.9547 H         1 UNK         0.0837 
     73 H73       -79.2360   25.7154  -72.5434 H         1 UNK         0.0837 
     74 H74       -77.6523   25.3738  -70.7549 H         1 UNK         0.0685 
     75 H75       -77.7752   26.0799  -69.1653 H         1 UNK         0.0685 
     76 H76       -79.0084   28.1819  -71.9652 H         1 UNK         0.1434 
     77 H77       -75.6353   30.7691  -71.8862 H         1 UNK         0.1329 
     78 H78       -75.5771   27.1207  -69.6214 H         1 UNK         0.1335 
     79 H79       -73.3648   28.3935  -70.4486 H         1 UNK         0.0680 
     80 H80       -74.0529   29.2415  -69.0901 H         1 UNK         0.0680 
     81 H81       -71.3788   30.8699  -72.2423 H         1 UNK         0.1032 
     82 H82       -72.0678   29.2826  -72.1600 H         1 UNK         0.1032 
     83 H83       -74.1300   30.2846  -73.4160 H         1 UNK         0.0461 
     84 H84       -73.4248   33.3834  -75.5300 H         1 UNK         0.3453 
     85 H85       -73.3851   31.6891  -75.9560 H         1 UNK         0.3453 
     86 H86       -73.3247   29.0507  -74.9865 H         1 UNK         0.2984 
     87 H87       -71.7481   28.7984  -77.0666 H         1 UNK         0.0554 
     88 H88       -69.3595   29.4393  -77.1232 H         1 UNK         0.0847 
     89 H89       -69.5183   27.7091  -77.3796 H         1 UNK         0.0847 
     90 H90       -68.9864   28.3268  -75.8161 H         1 UNK         0.0847 
     91 H91       -72.3537   26.8605  -76.2102 H         1 UNK         0.3141 
     92 H92       -71.2618   24.6331  -73.8558 H         1 UNK         0.0743 
     93 H93       -72.2819   26.0736  -72.0946 H         1 UNK         0.0784 
     94 H94       -73.6193   26.4748  -73.1626 H         1 UNK         0.0784 
     95 H95       -73.4102   24.8212  -72.5870 H         1 UNK         0.0784 
     96 H96       -73.8300   24.9881  -75.1290 H         1 UNK         0.3213 
     97 H97       -72.8196   23.6025  -78.2932 H         1 UNK         0.0855 
     98 H98       -74.6078   22.5923  -76.0252 H         1 UNK         0.0814 
     99 H99       -73.4435   21.6615  -76.9471 H         1 UNK         0.0814 
    100 H100      -74.8957   22.2606  -77.7351 H         1 UNK         0.0814 
    101 H101      -75.3176   24.6734  -77.5070 H         1 UNK         0.3105 
    102 H102      -74.6687   28.0782  -78.4311 H         1 UNK         0.0547 
    103 H103      -76.3699   25.8532  -79.6800 H         1 UNK         0.0837 
    104 H104      -76.6503   27.5861  -79.8437 H         1 UNK         0.0837 
    105 H105      -75.2061   26.8590  -80.5269 H         1 UNK         0.0837 
    106 H106      -76.9435   26.6317  -77.3754 H         1 UNK         0.3020 
    107 H107      -76.3746   27.5540  -73.9730 H         1 UNK         0.1245 
    108 H108      -78.7891   28.2951  -74.4153 H         1 UNK         0.0781 
    109 H109      -78.3868   28.5070  -76.0885 H         1 UNK         0.0781 
    110 H110      -77.8751   31.5134  -72.7512 H         1 UNK         0.0836 
    111 H111      -79.1258   30.3320  -73.0447 H         1 UNK         0.0836 
    112 H112      -78.4393   26.0149  -75.1462 H         1 UNK         0.3022 
    113 H113      -76.7047   22.8922  -75.2923 H         1 UNK         0.0747 
    114 H114      -77.3649   23.1906  -72.8166 H         1 UNK         0.0793 
    115 H115      -78.2561   21.9882  -73.7353 H         1 UNK         0.0793 
    116 H116      -78.9884   23.5461  -73.4030 H         1 UNK         0.0793 
    117 H117      -79.4425   23.3737  -75.7184 H         1 UNK         0.3047 
    118 H118      -79.2954   24.5216  -79.0634 H         1 UNK         0.0822 
    119 H119      -78.9196   22.0902  -79.2780 H         1 UNK         0.0807 
    120 H120      -80.6266   22.4598  -79.4622 H         1 UNK         0.0807 
    121 H121      -80.0291   21.7593  -77.9588 H         1 UNK         0.0807 
    122 H122      -81.0209   25.3644  -78.0216 H         1 UNK         0.2946 
    123 H123      -82.6128   25.8752  -76.7056 H         1 UNK         0.1144 
    124 H124      -84.1590   23.9764  -77.2454 H         1 UNK         0.0793 
    125 H125      -84.7842   24.9615  -75.9333 H         1 UNK         0.0793 
    126 H126      -84.0408   23.3990  -75.5892 H         1 UNK         0.0793 
    127 H127      -83.1400   25.1770  -74.0437 H         1 UNK         0.2896 
@<TRIPOS>BOND
     1    1    2 1    
     2    1   67 1    
     3    1   68 1    
     4    1   69 1    
     5    2    3 2    
     6    2    4 am   BACKBONE|DICT|INTERRES
     7    4    5 1    
     8    4   70 1    
     9    5    6 1    
    10    5   65 1    
    11    5   71 1    
    12    6    7 1    
    13    6   72 1    
    14    6   73 1    
    15    7    8 1    
    16    8    9 1    
    17    8   74 1    
    18    8   75 1    
    19    9   10 ar   
    20    9   14 ar   
    21   10   11 ar   
    22   10   76 1    
    23   11   12 ar   
    24   11   48 1    
    25   12   13 ar   
    26   12   77 1    
    27   13   14 ar   
    28   13   15 1    
    29   14   78 1    
    30   15   16 1    
    31   15   79 1    
    32   15   80 1    
    33   16   17 1    
    34   17   18 1    
    35   17   81 1    
    36   17   82 1    
    37   18   19 1    
    38   18   22 1    
    39   18   83 1    
    40   19   20 am   BACKBONE|DICT|INTERRES
    41   19   21 2    
    42   20   84 1    
    43   20   85 1    
    44   22   23 am   BACKBONE|DICT|INTERRES
    45   22   86 1    
    46   23   24 2    
    47   23   25 1    
    48   25   26 1    
    49   25   27 1    
    50   25   87 1    
    51   26   88 1    
    52   26   89 1    
    53   26   90 1    
    54   27   28 am   BACKBONE|DICT|INTERRES
    55   27   91 1    
    56   28   29 2    
    57   28   30 1    
    58   30   31 1    
    59   30   32 1    
    60   30   92 1    
    61   31   93 1    
    62   31   94 1    
    63   31   95 1    
    64   32   33 am   BACKBONE|DICT|INTERRES
    65   32   96 1    
    66   33   34 2    
    67   33   35 1    
    68   35   36 1    
    69   35   37 1    
    70   35   97 1    
    71   36   98 1    
    72   36   99 1    
    73   36  100 1    
    74   37   38 am   BACKBONE|DICT|INTERRES
    75   37  101 1    
    76   38   39 2    
    77   38   40 1    
    78   40   41 1    
    79   40   42 1    
    80   40  102 1    
    81   41  103 1    
    82   41  104 1    
    83   41  105 1    
    84   42   43 am   BACKBONE|DICT|INTERRES
    85   42  106 1    
    86   43   44 2    
    87   43   45 1    
    88   45   46 1    
    89   45   49 1    
    90   45  107 1    
    91   46   47 1    
    92   46  108 1    
    93   46  109 1    
    94   47   48 1    
    95   48  110 1    
    96   48  111 1    
    97   49   50 am   BACKBONE|DICT|INTERRES
    98   49  112 1    
    99   50   51 2    
   100   50   52 1    
   101   52   53 1    
   102   52   54 1    
   103   52  113 1    
   104   53  114 1    
   105   53  115 1    
   106   53  116 1    
   107   54   55 am   BACKBONE|DICT|INTERRES
   108   54  117 1    
   109   55   56 2    
   110   55   57 1    
   111   57   58 1    
   112   57   59 1    
   113   57  118 1    
   114   58  119 1    
   115   58  120 1    
   116   58  121 1    
   117   59   60 am   BACKBONE|DICT|INTERRES
   118   59  122 1    
   119   60   61 2    
   120   60   62 1    
   121   62   63 1    
   122   62   64 1    
   123   62  123 1    
   124   63  124 1    
   125   63  125 1    
   126   63  126 1    
   127   64   65 am   BACKBONE|DICT|INTERRES
   128   64  127 1    
   129   65   66 2    
@<TRIPOS>SUBSTRUCTURE
     1 UNK         1 GROUP             0       ****    0 ROOT    
