@<TRIPOS>MOLECULE
3R135
127   129    1
SMALL
USER_CHARGES


@<TRIPOS>ATOM
      1 CA        -82.6132   27.9918  -70.0444 C.3       0 UNK        -0.1998 
      2 C         -83.2839   27.5666  -71.3420 C.2       0 UNK         0.4909 
      3 O         -84.2419   26.7941  -71.3139 O.2       0 UNK        -0.5240 
      4 N         -82.7842   28.0640  -72.4811 N.am      1 UNK        -0.4739 
      5 CA        -83.2796   27.7556  -73.8292 C.3       1 UNK         0.0864 
      6 C6        -82.8613   28.8484  -74.8512 C.3       11 UNK        -0.0881 
      7 S7        -81.0715   28.9099  -75.2204 S.3       11 UNK        -0.2682 
      8 C8        -80.4609   30.1583  -74.0449 C.3       11 UNK         0.0289 
      9 C9        -79.1380   29.7181  -73.4354 C.ar      11 UNK        -0.0687 
     10 C10       -79.1169   28.6874  -72.4913 C.ar      11 UNK        -0.0823 
     11 C11       -77.9127   28.2609  -71.9309 C.ar      11 UNK        -0.0830 
     12 C12       -76.7226   28.8784  -72.3149 C.ar      11 UNK        -0.1021 
     13 C13       -76.7195   29.9023  -73.2665 C.ar      11 UNK        -0.0753 
     14 C14       -77.9355   30.3219  -73.8197 C.ar      11 UNK        -0.0933 
     15 C15       -75.4062   30.5091  -73.7497 C.3       11 UNK         0.0166 
     16 S16       -74.4492   31.3193  -72.4267 S.3       11 UNK        -0.2615 
     17 C17       -73.3117   29.9966  -71.8701 C.3       11 UNK        -0.0865 
     18 CA        -71.9337   30.0585  -72.5786 C.3       10 UNK         0.0862 
     19 C         -70.8534   29.2193  -71.8310 C.2       10 UNK         0.5551 
     20 N         -70.0942   28.3500  -72.4889 N.am      10 UNK        -0.7319 
     21 O         -70.6885   29.3704  -70.6230 O.2       10 UNK        -0.5018 
     22 N         -72.0655   29.7096  -74.0004 N.am      10 UNK        -0.4509 
     23 C         -71.3464   30.2430  -74.9930 C.2       10 UNK         0.4899 
     24 O         -70.5282   31.1515  -74.8392 O.2       10 UNK        -0.4839 
     25 CA        -71.5831   29.6401  -76.3909 C.3       9 UNK         0.0222 
     26 CB        -70.4868   30.0270  -77.4059 C.3       9 UNK        -0.1966 
     27 N         -71.7749   28.1833  -76.3696 N.am      9 UNK        -0.4218 
     28 C         -70.9158   27.2559  -75.9117 C.2       9 UNK         0.5020 
     29 O         -69.8418   27.5345  -75.3763 O.2       9 UNK        -0.5274 
     30 CA        -71.3052   25.7673  -76.0366 C.3       8 UNK         0.0270 
     31 CB        -71.4276   25.1222  -74.6456 C.3       8 UNK        -0.1976 
     32 N         -72.5413   25.5331  -76.7878 N.am      8 UNK        -0.4313 
     33 C         -72.6755   25.6815  -78.1129 C.2       8 UNK         0.5041 
     34 O         -71.7393   25.9356  -78.8713 O.2       8 UNK        -0.5577 
     35 CA        -74.1002   25.5796  -78.6836 C.3       7 UNK         0.0284 
     36 CB        -74.3912   24.1430  -79.1453 C.3       7 UNK        -0.1958 
     37 N         -75.1390   26.0205  -77.7438 N.am      7 UNK        -0.4454 
     38 C         -75.2599   27.2667  -77.2601 C.2       7 UNK         0.5089 
     39 O         -74.5111   28.1931  -77.5703 O.2       7 UNK        -0.5125 
     40 CA        -76.3546   27.5069  -76.2070 C.3       6 UNK         0.0408 
     41 CB        -77.7478   27.5563  -76.8479 C.3       6 UNK        -0.1791 
     42 N         -76.3258   26.5000  -75.1453 N.am      6 UNK        -0.4762 
     43 C         -75.3229   26.3579  -74.2641 C.2       6 UNK         0.5007 
     44 O         -74.3583   27.1234  -74.1970 O.2       6 UNK        -0.5032 
     45 CA        -75.3539   25.1159  -73.3500 C.3       5 UNK         0.0783 
     46 C46       -75.8582   25.4094  -71.9146 C.3       11 UNK        -0.0857 
     47 S47       -77.6737   25.5146  -71.7404 S.3       11 UNK        -0.2512 
     48 C48       -77.8995   27.1242  -70.9224 C.3       11 UNK         0.0225 
     49 N         -76.0392   23.9798  -73.9738 N.am      5 UNK        -0.4615 
     50 C         -75.5245   23.2623  -74.9795 C.2       4 UNK         0.5053 
     51 O         -74.4225   23.4852  -75.4818 O.2       4 UNK        -0.5105 
     52 CA        -76.3969   22.1235  -75.5303 C.3       4 UNK         0.0263 
     53 CB        -76.4903   20.9647  -74.5238 C.3       4 UNK        -0.1981 
     54 N         -77.7441   22.5567  -75.9137 N.am      4 UNK        -0.4224 
     55 C         -78.0087   23.4464  -76.8813 C.2       3 UNK         0.4895 
     56 O         -77.1428   24.0484  -77.5123 O.2       3 UNK        -0.5091 
     57 CA        -79.4845   23.7135  -77.2171 C.3       3 UNK         0.0250 
     58 CB        -79.9665   22.7456  -78.3096 C.3       3 UNK        -0.1996 
     59 N         -80.3918   23.6446  -76.0693 N.am      3 UNK        -0.4254 
     60 C         -80.3599   24.4865  -75.0284 C.2       2 UNK         0.5004 
     61 O         -79.4887   25.3428  -74.8630 O.2       2 UNK        -0.5226 
     62 CA        -81.4829   24.3307  -73.9930 C.3       2 UNK         0.0269 
     63 CB        -80.9786   23.6022  -72.7377 C.3       2 UNK        -0.1926 
     64 N         -82.0022   25.6443  -73.6165 N.am      2 UNK        -0.4687 
     65 C         -82.9258   26.3262  -74.3102 C.2       1 UNK         0.5165 
     66 O         -83.5022   25.8669  -75.2983 O.2       1 UNK        -0.5079 
     67 H67       -81.8116   28.7107  -70.2134 H         1 UNK         0.0900 
     68 H68       -82.1901   27.1239  -69.5392 H         1 UNK         0.0900 
     69 H69       -83.3433   28.4509  -69.3783 H         1 UNK         0.0900 
     70 H70       -82.0120   28.7111  -72.4456 H         1 UNK         0.2959 
     71 H71       -84.3707   27.7785  -73.7763 H         1 UNK         0.1079 
     72 H72       -83.3838   28.6831  -75.7953 H         1 UNK         0.0837 
     73 H73       -83.1957   29.8296  -74.5105 H         1 UNK         0.0837 
     74 H74       -80.3529   31.1114  -74.5648 H         1 UNK         0.0685 
     75 H75       -81.1846   30.3270  -73.2472 H         1 UNK         0.0685 
     76 H76       -80.0345   28.1969  -72.2060 H         1 UNK         0.1434 
     77 H77       -75.7972   28.5360  -71.8856 H         1 UNK         0.1329 
     78 H78       -77.9458   31.1055  -74.5648 H         1 UNK         0.1335 
     79 H79       -75.5992   31.2535  -74.5235 H         1 UNK         0.0680 
     80 H80       -74.8051   29.7365  -74.2265 H         1 UNK         0.0680 
     81 H81       -73.1994   30.1186  -70.7911 H         1 UNK         0.1032 
     82 H82       -73.7492   29.0105  -72.0150 H         1 UNK         0.1032 
     83 H83       -71.5833   31.0899  -72.5068 H         1 UNK         0.0461 
     84 H84       -69.3997   27.8276  -71.9796 H         1 UNK         0.3453 
     85 H85       -70.1698   28.2336  -73.4929 H         1 UNK         0.3453 
     86 H86       -72.6905   28.9428  -74.2125 H         1 UNK         0.2984 
     87 H87       -72.5238   30.0632  -76.7459 H         1 UNK         0.0554 
     88 H88       -70.6921   29.6061  -78.3902 H         1 UNK         0.0847 
     89 H89       -69.5027   29.6784  -77.0907 H         1 UNK         0.0847 
     90 H90       -70.4260   31.1095  -77.5241 H         1 UNK         0.0847 
     91 H91       -72.6562   27.8685  -76.7631 H         1 UNK         0.3141 
     92 H92       -70.4924   25.2685  -76.5685 H         1 UNK         0.0743 
     93 H93       -70.4761   25.1616  -74.1136 H         1 UNK         0.0784 
     94 H94       -72.1620   25.6355  -74.0262 H         1 UNK         0.0784 
     95 H95       -71.7154   24.0728  -74.7142 H         1 UNK         0.0784 
     96 H96       -73.3543   25.2433  -76.2561 H         1 UNK         0.3213 
     97 H97       -74.1481   26.2346  -79.5561 H         1 UNK         0.0855 
     98 H98       -75.3554   24.0768  -79.6495 H         1 UNK         0.0814 
     99 H99       -74.4037   23.4455  -78.3068 H         1 UNK         0.0814 
    100 H100      -73.6336   23.7961  -79.8493 H         1 UNK         0.0814 
    101 H101      -75.8249   25.3175  -77.4710 H         1 UNK         0.3105 
    102 H102      -76.1691   28.4791  -75.7498 H         1 UNK         0.0547 
    103 H103      -78.0019   26.6228  -77.3483 H         1 UNK         0.0837 
    104 H104      -78.5135   27.7501  -76.0974 H         1 UNK         0.0837 
    105 H105      -77.8089   28.3536  -77.5892 H         1 UNK         0.0837 
    106 H106      -77.1040   25.8537  -75.1053 H         1 UNK         0.3020 
    107 H107      -74.3067   24.8243  -73.2409 H         1 UNK         0.1245 
    108 H108      -75.3805   26.3045  -71.5151 H         1 UNK         0.0781 
    109 H109      -75.5311   24.6014  -71.2584 H         1 UNK         0.0781 
    110 H110      -78.8431   27.1059  -70.3750 H         1 UNK         0.0836 
    111 H111      -77.1223   27.2805  -70.1728 H         1 UNK         0.0836 
    112 H112      -76.9651   23.7709  -73.6284 H         1 UNK         0.3022 
    113 H113      -75.9062   21.7472  -76.4307 H         1 UNK         0.0747 
    114 H114      -75.4968   20.6264  -74.2256 H         1 UNK         0.0793 
    115 H115      -77.0055   20.1063  -74.9553 H         1 UNK         0.0793 
    116 H116      -77.0223   21.2533  -73.6164 H         1 UNK         0.0793 
    117 H117      -78.5212   22.1164  -75.4436 H         1 UNK         0.3047 
    118 H118      -79.5444   24.7277  -77.6175 H         1 UNK         0.0822 
    119 H119      -79.3199   22.7952  -79.1872 H         1 UNK         0.0807 
    120 H120      -80.9759   22.9905  -78.6408 H         1 UNK         0.0807 
    121 H121      -79.9667   21.7111  -77.9637 H         1 UNK         0.0807 
    122 H122      -81.1332   22.9607  -76.1227 H         1 UNK         0.2946 
    123 H123      -82.2928   23.7400  -74.4277 H         1 UNK         0.1144 
    124 H124      -81.7854   23.4451  -72.0216 H         1 UNK         0.0793 
    125 H125      -80.1919   24.1625  -72.2342 H         1 UNK         0.0793 
    126 H126      -80.5724   22.6216  -72.9889 H         1 UNK         0.0793 
    127 H127      -81.5393   26.1118  -72.8522 H         1 UNK         0.2896 
@<TRIPOS>BOND
     1    1    2 1    
     2    1   67 1    
     3    1   68 1    
     4    1   69 1    
     5    2    3 2    
     6    2    4 am   BACKBONE|DICT|INTERRES
     7    4    5 1    
     8    4   70 1    
     9    5    6 1    
    10    5   65 1    
    11    5   71 1    
    12    6    7 1    
    13    6   72 1    
    14    6   73 1    
    15    7    8 1    
    16    8    9 1    
    17    8   74 1    
    18    8   75 1    
    19    9   10 ar   
    20    9   14 ar   
    21   10   11 ar   
    22   10   76 1    
    23   11   12 ar   
    24   11   48 1    
    25   12   13 ar   
    26   12   77 1    
    27   13   14 ar   
    28   13   15 1    
    29   14   78 1    
    30   15   16 1    
    31   15   79 1    
    32   15   80 1    
    33   16   17 1    
    34   17   18 1    
    35   17   81 1    
    36   17   82 1    
    37   18   19 1    
    38   18   22 1    
    39   18   83 1    
    40   19   20 am   BACKBONE|DICT|INTERRES
    41   19   21 2    
    42   20   84 1    
    43   20   85 1    
    44   22   23 am   BACKBONE|DICT|INTERRES
    45   22   86 1    
    46   23   24 2    
    47   23   25 1    
    48   25   26 1    
    49   25   27 1    
    50   25   87 1    
    51   26   88 1    
    52   26   89 1    
    53   26   90 1    
    54   27   28 am   BACKBONE|DICT|INTERRES
    55   27   91 1    
    56   28   29 2    
    57   28   30 1    
    58   30   31 1    
    59   30   32 1    
    60   30   92 1    
    61   31   93 1    
    62   31   94 1    
    63   31   95 1    
    64   32   33 am   BACKBONE|DICT|INTERRES
    65   32   96 1    
    66   33   34 2    
    67   33   35 1    
    68   35   36 1    
    69   35   37 1    
    70   35   97 1    
    71   36   98 1    
    72   36   99 1    
    73   36  100 1    
    74   37   38 am   BACKBONE|DICT|INTERRES
    75   37  101 1    
    76   38   39 2    
    77   38   40 1    
    78   40   41 1    
    79   40   42 1    
    80   40  102 1    
    81   41  103 1    
    82   41  104 1    
    83   41  105 1    
    84   42   43 am   BACKBONE|DICT|INTERRES
    85   42  106 1    
    86   43   44 2    
    87   43   45 1    
    88   45   46 1    
    89   45   49 1    
    90   45  107 1    
    91   46   47 1    
    92   46  108 1    
    93   46  109 1    
    94   47   48 1    
    95   48  110 1    
    96   48  111 1    
    97   49   50 am   BACKBONE|DICT|INTERRES
    98   49  112 1    
    99   50   51 2    
   100   50   52 1    
   101   52   53 1    
   102   52   54 1    
   103   52  113 1    
   104   53  114 1    
   105   53  115 1    
   106   53  116 1    
   107   54   55 am   BACKBONE|DICT|INTERRES
   108   54  117 1    
   109   55   56 2    
   110   55   57 1    
   111   57   58 1    
   112   57   59 1    
   113   57  118 1    
   114   58  119 1    
   115   58  120 1    
   116   58  121 1    
   117   59   60 am   BACKBONE|DICT|INTERRES
   118   59  122 1    
   119   60   61 2    
   120   60   62 1    
   121   62   63 1    
   122   62   64 1    
   123   62  123 1    
   124   63  124 1    
   125   63  125 1    
   126   63  126 1    
   127   64   65 am   BACKBONE|DICT|INTERRES
   128   64  127 1    
   129   65   66 2    
@<TRIPOS>SUBSTRUCTURE
     1 UNK         1 GROUP             0       ****    0 ROOT    
