@<TRIPOS>MOLECULE
3R135
127   129    1
SMALL
USER_CHARGES


@<TRIPOS>ATOM
      1 CA        -77.6812   27.1642  -70.9423 C.3       0 UNK        -0.1998 
      2 C         -79.1775   26.9648  -70.7600 C.2       0 UNK         0.4909 
      3 O         -79.5855   26.1444  -69.9372 O.2       0 UNK        -0.5240 
      4 N         -79.9999   27.7042  -71.5173 N.am      1 UNK        -0.4739 
      5 CA        -81.4674   27.6197  -71.4698 C.3       1 UNK         0.0864 
      6 C6        -82.1549   28.8851  -72.0427 C.3       11 UNK        -0.0881 
      7 S7        -81.9678   30.3216  -70.9283 S.3       11 UNK        -0.2682 
      8 C8        -81.0720   31.5279  -71.9561 C.3       11 UNK         0.0289 
      9 C9        -79.6241   31.1179  -72.1674 C.ar      11 UNK        -0.0687 
     10 C10       -79.2382   30.5033  -73.3608 C.ar      11 UNK        -0.0823 
     11 C11       -77.9194   30.0838  -73.5446 C.ar      11 UNK        -0.0830 
     12 C12       -76.9796   30.2995  -72.5353 C.ar      11 UNK        -0.1021 
     13 C13       -77.3449   30.9429  -71.3487 C.ar      11 UNK        -0.0753 
     14 C14       -78.6718   31.3462  -71.1681 C.ar      11 UNK        -0.0933 
     15 C15       -76.3074   31.1745  -70.2593 C.3       11 UNK         0.0166 
     16 S16       -74.8838   32.1200  -70.8934 S.3       11 UNK        -0.2615 
     17 C17       -73.4791   31.3324  -70.0266 C.3       11 UNK        -0.0865 
     18 CA        -72.8603   30.1002  -70.7521 C.3       10 UNK         0.0862 
     19 C         -73.6136   28.7784  -70.4220 C.2       10 UNK         0.5551 
     20 N         -73.4482   28.2617  -69.2119 N.am      10 UNK        -0.7319 
     21 O         -74.3648   28.2370  -71.2303 O.2       10 UNK        -0.5018 
     22 N         -72.6944   30.3332  -72.1954 N.am      10 UNK        -0.4509 
     23 C         -71.9692   29.5640  -73.0139 C.2       10 UNK         0.4899 
     24 O         -71.2206   28.6595  -72.6322 O.2       10 UNK        -0.4839 
     25 CA        -72.0922   29.8626  -74.5131 C.3       9 UNK         0.0222 
     26 CB        -71.2311   31.0720  -74.9182 C.3       9 UNK        -0.1966 
     27 N         -71.6610   28.6769  -75.2473 N.am      9 UNK        -0.4218 
     28 C         -72.1421   28.2574  -76.4208 C.2       9 UNK         0.5020 
     29 O         -72.9709   28.8805  -77.0886 O.2       9 UNK        -0.5274 
     30 CA        -71.6058   26.9055  -76.9134 C.3       8 UNK         0.0270 
     31 CB        -72.0354   25.7600  -75.9790 C.3       8 UNK        -0.1976 
     32 N         -72.0947   26.6249  -78.2628 N.am      8 UNK        -0.4313 
     33 C         -71.3804   26.0443  -79.2355 C.2       8 UNK         0.5041 
     34 O         -70.2095   25.6836  -79.0941 O.2       8 UNK        -0.5577 
     35 CA        -72.0847   25.8361  -80.5941 C.3       7 UNK         0.0284 
     36 CB        -71.3485   24.8326  -81.5086 C.3       7 UNK        -0.1958 
     37 N         -73.5035   25.4802  -80.4654 N.am      7 UNK        -0.4454 
     38 C         -74.0247   24.4047  -79.8562 C.2       7 UNK         0.5089 
     39 O         -73.3646   23.4961  -79.3489 O.2       7 UNK        -0.5125 
     40 CA        -75.5633   24.3655  -79.7773 C.3       6 UNK         0.0408 
     41 CB        -76.1070   22.9842  -80.1785 C.3       6 UNK        -0.1791 
     42 N         -76.0630   24.7143  -78.4432 N.am      6 UNK        -0.4762 
     43 C         -75.7982   25.8550  -77.7835 C.2       6 UNK         0.5007 
     44 O         -75.1184   26.7659  -78.2582 O.2       6 UNK        -0.5032 
     45 CA        -76.4034   26.0515  -76.3754 C.3       5 UNK         0.0783 
     46 C46       -77.5372   27.1019  -76.4452 C.3       11 UNK        -0.0857 
     47 S47       -78.0648   27.6512  -74.7929 S.3       11 UNK        -0.2512 
     48 C48       -77.5193   29.3818  -74.8275 C.3       11 UNK         0.0225 
     49 N         -76.8678   24.8064  -75.7525 N.am      5 UNK        -0.4615 
     50 C         -76.0904   23.7768  -75.3859 C.2       4 UNK         0.5053 
     51 O         -74.8623   23.8009  -75.4414 O.2       4 UNK        -0.5105 
     52 CA        -76.7844   22.4881  -74.8965 C.3       4 UNK         0.0263 
     53 CB        -76.6638   22.3668  -73.3684 C.3       4 UNK        -0.1981 
     54 N         -78.1986   22.3787  -75.2673 N.am      4 UNK        -0.4224 
     55 C         -78.6991   22.3991  -76.5119 C.2       3 UNK         0.4895 
     56 O         -78.0011   22.4083  -77.5260 O.2       3 UNK        -0.5091 
     57 CA        -80.2333   22.4829  -76.6533 C.3       3 UNK         0.0250 
     58 CB        -80.8045   21.1235  -77.0880 C.3       3 UNK        -0.1996 
     59 N         -80.9449   22.9421  -75.4496 N.am      3 UNK        -0.4254 
     60 C         -80.7522   24.1131  -74.8231 C.2       2 UNK         0.5004 
     61 O         -79.9342   24.9560  -75.1958 O.2       2 UNK        -0.5226 
     62 CA        -81.5651   24.3457  -73.5421 C.3       2 UNK         0.0269 
     63 CB        -81.2858   23.2467  -72.4935 C.3       2 UNK        -0.1926 
     64 N         -81.2419   25.6535  -72.9684 N.am      2 UNK        -0.4687 
     65 C         -82.0240   26.3298  -72.1158 C.2       1 UNK         0.5165 
     66 O         -83.1553   25.9532  -71.8035 O.2       1 UNK        -0.5079 
     67 H67       -77.4466   27.6117  -71.9058 H         1 UNK         0.0900 
     68 H68       -77.1601   26.2089  -70.8873 H         1 UNK         0.0900 
     69 H69       -77.2875   27.8132  -70.1607 H         1 UNK         0.0900 
     70 H70       -79.6123   28.3853  -72.1567 H         1 UNK         0.2959 
     71 H71       -81.7511   27.5483  -70.4169 H         1 UNK         0.1079 
     72 H72       -81.7812   29.1139  -73.0413 H         1 UNK         0.0837 
     73 H73       -83.2288   28.7232  -72.1576 H         1 UNK         0.0837 
     74 H74       -81.5877   31.6517  -72.9098 H         1 UNK         0.0685 
     75 H75       -81.1044   32.5013  -71.4644 H         1 UNK         0.0685 
     76 H76       -79.9667   30.3307  -74.1415 H         1 UNK         0.1434 
     77 H77       -75.9596   29.9649  -72.6692 H         1 UNK         0.1329 
     78 H78       -78.9702   31.8264  -70.2462 H         1 UNK         0.1335 
     79 H79       -76.7375   31.7145  -69.4145 H         1 UNK         0.0680 
     80 H80       -75.9903   30.2059  -69.8750 H         1 UNK         0.0680 
     81 H81       -73.7660   31.0952  -69.0002 H         1 UNK         0.1032 
     82 H82       -72.7071   32.0973  -69.9302 H         1 UNK         0.1032 
     83 H83       -71.8528   29.9727  -70.3501 H         1 UNK         0.0461 
     84 H84       -73.9336   27.4108  -68.9755 H         1 UNK         0.3453 
     85 H85       -72.8343   28.6907  -68.5372 H         1 UNK         0.3453 
     86 H86       -73.2904   31.0491  -72.5855 H         1 UNK         0.2984 
     87 H87       -73.1420   30.0683  -74.7345 H         1 UNK         0.0554 
     88 H88       -71.3241   31.2848  -75.9834 H         1 UNK         0.0847 
     89 H89       -70.1752   30.9052  -74.7013 H         1 UNK         0.0847 
     90 H90       -71.5374   31.9708  -74.3817 H         1 UNK         0.0847 
     91 H91       -71.0278   28.0836  -74.7243 H         1 UNK         0.3141 
     92 H92       -70.5158   26.9740  -76.9208 H         1 UNK         0.0743 
     93 H93       -71.6208   25.8799  -74.9776 H         1 UNK         0.0784 
     94 H94       -71.6981   24.7931  -76.3532 H         1 UNK         0.0784 
     95 H95       -73.1197   25.7168  -75.8808 H         1 UNK         0.0784 
     96 H96       -73.0499   26.9247  -78.4432 H         1 UNK         0.3213 
     97 H97       -72.0600   26.8073  -81.0909 H         1 UNK         0.0855 
     98 H98       -70.3325   25.1685  -81.7198 H         1 UNK         0.0814 
     99 H99       -71.8562   24.7210  -82.4665 H         1 UNK         0.0814 
    100 H100      -71.2745   23.8459  -81.0503 H         1 UNK         0.0814 
    101 H101      -74.1534   26.1804  -80.7974 H         1 UNK         0.3105 
    102 H102      -75.9677   25.0964  -80.4804 H         1 UNK         0.0547 
    103 H103      -75.8010   22.2099  -79.4735 H         1 UNK         0.0837 
    104 H104      -75.7432   22.6912  -81.1642 H         1 UNK         0.0837 
    105 H105      -77.1962   22.9832  -80.2212 H         1 UNK         0.0837 
    106 H106      -76.6315   24.0122  -77.9821 H         1 UNK         0.3020 
    107 H107      -75.5997   26.4513  -75.7530 H         1 UNK         0.1245 
    108 H108      -78.4068   26.6931  -76.9636 H         1 UNK         0.0781 
    109 H109      -77.2280   27.9753  -77.0234 H         1 UNK         0.0781 
    110 H110      -77.9675   29.8936  -75.6807 H         1 UNK         0.0836 
    111 H111      -76.4379   29.4208  -74.9705 H         1 UNK         0.0836 
    112 H112      -77.8716   24.7323  -75.6235 H         1 UNK         0.3022 
    113 H113      -76.2599   21.6470  -75.3543 H         1 UNK         0.0747 
    114 H114      -77.0672   21.4193  -73.0106 H         1 UNK         0.0793 
    115 H115      -75.6199   22.4105  -73.0541 H         1 UNK         0.0793 
    116 H116      -77.1915   23.1734  -72.8573 H         1 UNK         0.0793 
    117 H117      -78.8591   22.3725  -74.5049 H         1 UNK         0.3047 
    118 H118      -80.4358   23.2080  -77.4444 H         1 UNK         0.0822 
    119 H119      -81.8718   21.1895  -77.3002 H         1 UNK         0.0807 
    120 H120      -80.6590   20.3608  -76.3219 H         1 UNK         0.0807 
    121 H121      -80.3183   20.7679  -77.9978 H         1 UNK         0.0807 
    122 H122      -81.6336   22.3054  -75.0744 H         1 UNK         0.2946 
    123 H123      -82.6216   24.3281  -73.8198 H         1 UNK         0.1144 
    124 H124      -81.5474   22.2552  -72.8641 H         1 UNK         0.0793 
    125 H125      -81.8697   23.4042  -71.5864 H         1 UNK         0.0793 
    126 H126      -80.2334   23.2249  -72.2073 H         1 UNK         0.0793 
    127 H127      -80.3507   26.0411  -73.2540 H         1 UNK         0.2896 
@<TRIPOS>BOND
     1    1    2 1    
     2    1   67 1    
     3    1   68 1    
     4    1   69 1    
     5    2    3 2    
     6    2    4 am   BACKBONE|DICT|INTERRES
     7    4    5 1    
     8    4   70 1    
     9    5    6 1    
    10    5   65 1    
    11    5   71 1    
    12    6    7 1    
    13    6   72 1    
    14    6   73 1    
    15    7    8 1    
    16    8    9 1    
    17    8   74 1    
    18    8   75 1    
    19    9   10 ar   
    20    9   14 ar   
    21   10   11 ar   
    22   10   76 1    
    23   11   12 ar   
    24   11   48 1    
    25   12   13 ar   
    26   12   77 1    
    27   13   14 ar   
    28   13   15 1    
    29   14   78 1    
    30   15   16 1    
    31   15   79 1    
    32   15   80 1    
    33   16   17 1    
    34   17   18 1    
    35   17   81 1    
    36   17   82 1    
    37   18   19 1    
    38   18   22 1    
    39   18   83 1    
    40   19   20 am   BACKBONE|DICT|INTERRES
    41   19   21 2    
    42   20   84 1    
    43   20   85 1    
    44   22   23 am   BACKBONE|DICT|INTERRES
    45   22   86 1    
    46   23   24 2    
    47   23   25 1    
    48   25   26 1    
    49   25   27 1    
    50   25   87 1    
    51   26   88 1    
    52   26   89 1    
    53   26   90 1    
    54   27   28 am   BACKBONE|DICT|INTERRES
    55   27   91 1    
    56   28   29 2    
    57   28   30 1    
    58   30   31 1    
    59   30   32 1    
    60   30   92 1    
    61   31   93 1    
    62   31   94 1    
    63   31   95 1    
    64   32   33 am   BACKBONE|DICT|INTERRES
    65   32   96 1    
    66   33   34 2    
    67   33   35 1    
    68   35   36 1    
    69   35   37 1    
    70   35   97 1    
    71   36   98 1    
    72   36   99 1    
    73   36  100 1    
    74   37   38 am   BACKBONE|DICT|INTERRES
    75   37  101 1    
    76   38   39 2    
    77   38   40 1    
    78   40   41 1    
    79   40   42 1    
    80   40  102 1    
    81   41  103 1    
    82   41  104 1    
    83   41  105 1    
    84   42   43 am   BACKBONE|DICT|INTERRES
    85   42  106 1    
    86   43   44 2    
    87   43   45 1    
    88   45   46 1    
    89   45   49 1    
    90   45  107 1    
    91   46   47 1    
    92   46  108 1    
    93   46  109 1    
    94   47   48 1    
    95   48  110 1    
    96   48  111 1    
    97   49   50 am   BACKBONE|DICT|INTERRES
    98   49  112 1    
    99   50   51 2    
   100   50   52 1    
   101   52   53 1    
   102   52   54 1    
   103   52  113 1    
   104   53  114 1    
   105   53  115 1    
   106   53  116 1    
   107   54   55 am   BACKBONE|DICT|INTERRES
   108   54  117 1    
   109   55   56 2    
   110   55   57 1    
   111   57   58 1    
   112   57   59 1    
   113   57  118 1    
   114   58  119 1    
   115   58  120 1    
   116   58  121 1    
   117   59   60 am   BACKBONE|DICT|INTERRES
   118   59  122 1    
   119   60   61 2    
   120   60   62 1    
   121   62   63 1    
   122   62   64 1    
   123   62  123 1    
   124   63  124 1    
   125   63  125 1    
   126   63  126 1    
   127   64   65 am   BACKBONE|DICT|INTERRES
   128   64  127 1    
   129   65   66 2    
@<TRIPOS>SUBSTRUCTURE
     1 UNK         1 GROUP             0       ****    0 ROOT    
