@<TRIPOS>MOLECULE
3R135
127   129    1
SMALL
USER_CHARGES


@<TRIPOS>ATOM
      1 CA        -83.1051   26.5345  -69.5483 C.3       0 UNK        -0.1998 
      2 C         -83.3077   27.0047  -70.9807 C.2       0 UNK         0.4909 
      3 O         -84.4235   26.9353  -71.4968 O.2       0 UNK        -0.5240 
      4 N         -82.2357   27.4842  -71.6248 N.am      1 UNK        -0.4739 
      5 CA        -82.2384   27.9655  -73.0131 C.3       1 UNK         0.0864 
      6 C6        -81.0003   28.8443  -73.3184 C.3       11 UNK        -0.0881 
      7 S7        -81.0090   30.4309  -72.4041 S.3       11 UNK        -0.2682 
      8 C8        -80.0412   30.0960  -70.8916 C.3       11 UNK         0.0289 
      9 C9        -78.6247   29.6335  -71.1972 C.ar      11 UNK        -0.0687 
     10 C10       -78.3023   28.2774  -71.1103 C.ar      11 UNK        -0.0823 
     11 C11       -77.0336   27.8244  -71.4759 C.ar      11 UNK        -0.0830 
     12 C12       -76.0635   28.7467  -71.8795 C.ar      11 UNK        -0.1021 
     13 C13       -76.3607   30.1122  -71.9349 C.ar      11 UNK        -0.0753 
     14 C14       -77.6452   30.5502  -71.5931 C.ar      11 UNK        -0.0933 
     15 C15       -75.3108   31.1031  -72.4178 C.3       11 UNK         0.0166 
     16 S16       -73.9000   31.2183  -71.2710 S.3       11 UNK        -0.2615 
     17 C17       -72.9140   32.5413  -72.0612 C.3       11 UNK        -0.0865 
     18 CA        -71.7256   32.0474  -72.9323 C.3       10 UNK         0.0862 
     19 C         -70.5598   31.4469  -72.0961 C.2       10 UNK         0.5551 
     20 N         -69.8665   32.2745  -71.3253 N.am      10 UNK        -0.7319 
     21 O         -70.2774   30.2501  -72.1282 O.2       10 UNK        -0.5018 
     22 N         -72.1834   31.1509  -73.9995 N.am      10 UNK        -0.4509 
     23 C         -71.5944   30.9916  -75.1873 C.2       10 UNK         0.4899 
     24 O         -70.6081   31.6301  -75.5597 O.2       10 UNK        -0.4839 
     25 CA        -72.2250   29.9320  -76.1106 C.3       9 UNK         0.0222 
     26 CB        -71.8594   30.1488  -77.5907 C.3       9 UNK        -0.1966 
     27 N         -71.8477   28.5717  -75.7259 N.am      9 UNK        -0.4218 
     28 C         -72.2762   27.9207  -74.6364 C.2       9 UNK         0.5020 
     29 O         -73.0421   28.4073  -73.8024 O.2       9 UNK        -0.5274 
     30 CA        -71.8061   26.4655  -74.5020 C.3       8 UNK         0.0270 
     31 CB        -72.3892   25.7587  -73.2625 C.3       8 UNK        -0.1976 
     32 N         -72.1976   25.7296  -75.7048 N.am      8 UNK        -0.4313 
     33 C         -71.4141   24.8951  -76.4013 C.2       8 UNK         0.5041 
     34 O         -70.2347   24.6832  -76.1156 O.2       8 UNK        -0.5577 
     35 CA        -72.0267   24.1487  -77.6060 C.3       7 UNK         0.0284 
     36 CB        -72.0188   22.6303  -77.3585 C.3       7 UNK        -0.1958 
     37 N         -73.3981   24.5601  -77.9133 N.am      7 UNK        -0.4454 
     38 C         -73.7364   25.6142  -78.6707 C.2       7 UNK         0.5089 
     39 O         -72.9207   26.3189  -79.2649 O.2       7 UNK        -0.5125 
     40 CA        -75.2379   25.9690  -78.7422 C.3       6 UNK         0.0408 
     41 CB        -75.8738   25.3582  -79.9999 C.3       6 UNK        -0.1791 
     42 N         -75.9957   25.5436  -77.5577 N.am      6 UNK        -0.4762 
     43 C         -75.7274   25.9485  -76.3052 C.2       6 UNK         0.5007 
     44 O         -74.8958   26.8187  -76.0589 O.2       6 UNK        -0.5032 
     45 CA        -76.4087   25.2288  -75.1234 C.3       5 UNK         0.0783 
     46 C46       -77.2331   26.2150  -74.2680 C.3       11 UNK        -0.0857 
     47 S47       -77.7839   25.4566  -72.7005 S.3       11 UNK        -0.2512 
     48 C48       -76.7376   26.3317  -71.4881 C.3       11 UNK         0.0225 
     49 N         -77.1824   24.0529  -75.5311 N.am      5 UNK        -0.4615 
     50 C         -76.6463   22.9023  -75.9639 C.2       4 UNK         0.5053 
     51 O         -75.4323   22.7190  -76.0628 O.2       4 UNK        -0.5105 
     52 CA        -77.6127   21.7846  -76.3995 C.3       4 UNK         0.0263 
     53 CB        -77.7814   20.7574  -75.2689 C.3       4 UNK        -0.1981 
     54 N         -78.9343   22.2700  -76.8080 N.am      4 UNK        -0.4224 
     55 C         -79.1739   23.0875  -77.8443 C.2       3 UNK         0.4895 
     56 O         -78.3022   23.4810  -78.6197 O.2       3 UNK        -0.5091 
     57 CA        -80.6201   23.5910  -78.0134 C.3       3 UNK         0.0250 
     58 CB        -81.3864   22.6987  -79.0029 C.3       3 UNK        -0.1996 
     59 N         -81.3751   23.6866  -76.7551 N.am      3 UNK        -0.4254 
     60 C         -81.0366   24.4673  -75.7185 C.2       2 UNK         0.5004 
     61 O         -80.0236   25.1675  -75.6979 O.2       2 UNK        -0.5226 
     62 CA        -81.9404   24.3917  -74.4761 C.3       2 UNK         0.0269 
     63 CB        -81.5260   23.2004  -73.5958 C.3       2 UNK        -0.1926 
     64 N         -81.8905   25.6102  -73.6630 N.am      2 UNK        -0.4687 
     65 C         -82.3637   26.8100  -74.0330 C.2       1 UNK         0.5165 
     66 O         -82.9125   27.0201  -75.1162 O.2       1 UNK        -0.5079 
     67 H67       -83.7489   27.0988  -68.8741 H         1 UNK         0.0900 
     68 H68       -82.0745   26.6618  -69.2177 H         1 UNK         0.0900 
     69 H69       -83.3614   25.4790  -69.4605 H         1 UNK         0.0900 
     70 H70       -81.3483   27.5238  -71.1483 H         1 UNK         0.2959 
     71 H71       -83.1281   28.5855  -73.1472 H         1 UNK         0.1079 
     72 H72       -80.0757   28.2949  -73.1425 H         1 UNK         0.0837 
     73 H73       -80.9815   29.1045  -74.3788 H         1 UNK         0.0837 
     74 H74       -80.0000   31.0089  -70.2957 H         1 UNK         0.0685 
     75 H75       -80.5656   29.3629  -70.2779 H         1 UNK         0.0685 
     76 H76       -79.0526   27.5604  -70.8088 H         1 UNK         0.1434 
     77 H77       -75.0799   28.4044  -72.1717 H         1 UNK         0.1329 
     78 H78       -77.8947   31.6004  -71.6602 H         1 UNK         0.1335 
     79 H79       -74.9571   30.7924  -73.4017 H         1 UNK         0.0680 
     80 H80       -75.7513   32.0933  -72.5439 H         1 UNK         0.0680 
     81 H81       -72.5567   33.2096  -71.2758 H         1 UNK         0.1032 
     82 H82       -73.5731   33.1588  -72.6731 H         1 UNK         0.1032 
     83 H83       -71.3120   32.9333  -73.4188 H         1 UNK         0.0461 
     84 H84       -70.0775   33.2597  -71.2912 H         1 UNK         0.3453 
     85 H85       -69.1086   31.9066  -70.7717 H         1 UNK         0.3453 
     86 H86       -72.8705   30.4563  -73.7254 H         1 UNK         0.2984 
     87 H87       -73.3105   30.0204  -76.0247 H         1 UNK         0.0554 
     88 H88       -72.3815   29.4412  -78.2357 H         1 UNK         0.0847 
     89 H89       -70.7888   30.0358  -77.7665 H         1 UNK         0.0847 
     90 H90       -72.1392   31.1510  -77.9182 H         1 UNK         0.0847 
     91 H91       -71.2161   28.0884  -76.3480 H         1 UNK         0.3141 
     92 H92       -70.7188   26.4929  -74.4038 H         1 UNK         0.0743 
     93 H93       -73.4789   25.7267  -73.2936 H         1 UNK         0.0784 
     94 H94       -72.0249   24.7344  -73.1824 H         1 UNK         0.0784 
     95 H95       -72.1033   26.2783  -72.3470 H         1 UNK         0.0784 
     96 H96       -73.1368   25.9297  -76.0374 H         1 UNK         0.3213 
     97 H97       -71.3909   24.3547  -78.4699 H         1 UNK         0.0855 
     98 H98       -72.6262   22.3598  -76.4936 H         1 UNK         0.0814 
     99 H99       -71.0069   22.2674  -77.1726 H         1 UNK         0.0814 
    100 H100      -72.4023   22.0851  -78.2212 H         1 UNK         0.0814 
    101 H101      -74.1366   24.0355  -77.4592 H         1 UNK         0.3105 
    102 H102      -75.3153   27.0559  -78.8119 H         1 UNK         0.0547 
    103 H103      -75.3483   25.6801  -80.9000 H         1 UNK         0.0837 
    104 H104      -75.8462   24.2680  -79.9770 H         1 UNK         0.0837 
    105 H105      -76.9150   25.6631  -80.1066 H         1 UNK         0.0837 
    106 H106      -76.7020   24.8309  -77.7001 H         1 UNK         0.3020 
    107 H107      -75.5882   24.8699  -74.4976 H         1 UNK         0.1245 
    108 H108      -78.1064   26.5725  -74.8137 H         1 UNK         0.0781 
    109 H109      -76.6450   27.1069  -74.0497 H         1 UNK         0.0781 
    110 H110      -75.6873   26.1414  -71.7154 H         1 UNK         0.0836 
    111 H111      -76.9196   25.9196  -70.4947 H         1 UNK         0.0836 
    112 H112      -78.1904   24.1649  -75.5098 H         1 UNK         0.3022 
    113 H113      -77.1628   21.2827  -77.2586 H         1 UNK         0.0747 
    114 H114      -78.3938   19.9131  -75.5863 H         1 UNK         0.0793 
    115 H115      -76.8153   20.3558  -74.9595 H         1 UNK         0.0793 
    116 H116      -78.2474   21.2001  -74.3873 H         1 UNK         0.0793 
    117 H117      -79.7153   22.0000  -76.2288 H         1 UNK         0.3047 
    118 H118      -80.5608   24.5966  -78.4353 H         1 UNK         0.0822 
    119 H119      -82.3782   23.0992  -79.2137 H         1 UNK         0.0807 
    120 H120      -81.5064   21.6832  -78.6234 H         1 UNK         0.0807 
    121 H121      -80.8587   22.6302  -79.9555 H         1 UNK         0.0807 
    122 H122      -82.2133   23.1262  -76.6906 H         1 UNK         0.2946 
    123 H123      -82.9721   24.2506  -74.8065 H         1 UNK         0.1144 
    124 H124      -80.4984   23.3002  -73.2420 H         1 UNK         0.0793 
    125 H125      -81.5921   22.2603  -74.1450 H         1 UNK         0.0793 
    126 H126      -82.1732   23.1073  -72.7234 H         1 UNK         0.0793 
    127 H127      -81.4345   25.5370  -72.7660 H         1 UNK         0.2896 
@<TRIPOS>BOND
     1    1    2 1    
     2    1   67 1    
     3    1   68 1    
     4    1   69 1    
     5    2    3 2    
     6    2    4 am   BACKBONE|DICT|INTERRES
     7    4    5 1    
     8    4   70 1    
     9    5    6 1    
    10    5   65 1    
    11    5   71 1    
    12    6    7 1    
    13    6   72 1    
    14    6   73 1    
    15    7    8 1    
    16    8    9 1    
    17    8   74 1    
    18    8   75 1    
    19    9   10 ar   
    20    9   14 ar   
    21   10   11 ar   
    22   10   76 1    
    23   11   12 ar   
    24   11   48 1    
    25   12   13 ar   
    26   12   77 1    
    27   13   14 ar   
    28   13   15 1    
    29   14   78 1    
    30   15   16 1    
    31   15   79 1    
    32   15   80 1    
    33   16   17 1    
    34   17   18 1    
    35   17   81 1    
    36   17   82 1    
    37   18   19 1    
    38   18   22 1    
    39   18   83 1    
    40   19   20 am   BACKBONE|DICT|INTERRES
    41   19   21 2    
    42   20   84 1    
    43   20   85 1    
    44   22   23 am   BACKBONE|DICT|INTERRES
    45   22   86 1    
    46   23   24 2    
    47   23   25 1    
    48   25   26 1    
    49   25   27 1    
    50   25   87 1    
    51   26   88 1    
    52   26   89 1    
    53   26   90 1    
    54   27   28 am   BACKBONE|DICT|INTERRES
    55   27   91 1    
    56   28   29 2    
    57   28   30 1    
    58   30   31 1    
    59   30   32 1    
    60   30   92 1    
    61   31   93 1    
    62   31   94 1    
    63   31   95 1    
    64   32   33 am   BACKBONE|DICT|INTERRES
    65   32   96 1    
    66   33   34 2    
    67   33   35 1    
    68   35   36 1    
    69   35   37 1    
    70   35   97 1    
    71   36   98 1    
    72   36   99 1    
    73   36  100 1    
    74   37   38 am   BACKBONE|DICT|INTERRES
    75   37  101 1    
    76   38   39 2    
    77   38   40 1    
    78   40   41 1    
    79   40   42 1    
    80   40  102 1    
    81   41  103 1    
    82   41  104 1    
    83   41  105 1    
    84   42   43 am   BACKBONE|DICT|INTERRES
    85   42  106 1    
    86   43   44 2    
    87   43   45 1    
    88   45   46 1    
    89   45   49 1    
    90   45  107 1    
    91   46   47 1    
    92   46  108 1    
    93   46  109 1    
    94   47   48 1    
    95   48  110 1    
    96   48  111 1    
    97   49   50 am   BACKBONE|DICT|INTERRES
    98   49  112 1    
    99   50   51 2    
   100   50   52 1    
   101   52   53 1    
   102   52   54 1    
   103   52  113 1    
   104   53  114 1    
   105   53  115 1    
   106   53  116 1    
   107   54   55 am   BACKBONE|DICT|INTERRES
   108   54  117 1    
   109   55   56 2    
   110   55   57 1    
   111   57   58 1    
   112   57   59 1    
   113   57  118 1    
   114   58  119 1    
   115   58  120 1    
   116   58  121 1    
   117   59   60 am   BACKBONE|DICT|INTERRES
   118   59  122 1    
   119   60   61 2    
   120   60   62 1    
   121   62   63 1    
   122   62   64 1    
   123   62  123 1    
   124   63  124 1    
   125   63  125 1    
   126   63  126 1    
   127   64   65 am   BACKBONE|DICT|INTERRES
   128   64  127 1    
   129   65   66 2    
@<TRIPOS>SUBSTRUCTURE
     1 UNK         1 GROUP             0       ****    0 ROOT    
