@<TRIPOS>MOLECULE
3R135
127   129    1
SMALL
USER_CHARGES


@<TRIPOS>ATOM
      1 CA        -76.3030   23.3291  -73.5281 C.3       0 UNK        -0.1998 
      2 C         -77.7477   23.2779  -73.0637 C.2       0 UNK         0.4909 
      3 O         -78.3555   22.2072  -73.0694 O.2       0 UNK        -0.5240 
      4 N         -78.2956   24.4326  -72.6637 N.am      1 UNK        -0.4739 
      5 CA        -79.6611   24.6296  -72.1614 C.3       1 UNK         0.0864 
      6 C6        -79.8836   26.0953  -71.7109 C.3       11 UNK        -0.0881 
      7 S7        -78.8212   26.5246  -70.2927 S.3       11 UNK        -0.2682 
      8 C8        -79.3115   28.2485  -69.9801 C.3       11 UNK         0.0289 
      9 C9        -78.5505   29.2270  -70.8629 C.ar      11 UNK        -0.0687 
     10 C10       -79.1694   29.8269  -71.9638 C.ar      11 UNK        -0.0823 
     11 C11       -78.4782   30.7586  -72.7465 C.ar      11 UNK        -0.0830 
     12 C12       -77.1525   31.0748  -72.4319 C.ar      11 UNK        -0.1021 
     13 C13       -76.5272   30.4893  -71.3264 C.ar      11 UNK        -0.0753 
     14 C14       -77.2320   29.5674  -70.5470 C.ar      11 UNK        -0.0933 
     15 C15       -75.1058   30.8792  -70.9474 C.3       11 UNK         0.0166 
     16 S16       -73.9538   29.4982  -71.1956 S.3       11 UNK        -0.2615 
     17 C17       -72.3496   30.3040  -70.8647 C.3       11 UNK        -0.0865 
     18 CA        -71.6744   30.8596  -72.1471 C.3       10 UNK         0.0862 
     19 C         -70.3146   31.5386  -71.8116 C.2       10 UNK         0.5551 
     20 N         -69.1877   31.0666  -72.3307 N.am      10 UNK        -0.7319 
     21 O         -70.2852   32.5161  -71.0679 O.2       10 UNK        -0.5018 
     22 N         -71.6196   29.8455  -73.2118 N.am      10 UNK        -0.4509 
     23 C         -71.4931   30.0902  -74.5189 C.2       10 UNK         0.4899 
     24 O         -71.3273   31.2147  -74.9918 O.2       10 UNK        -0.4839 
     25 CA        -71.5966   28.8862  -75.4714 C.3       9 UNK         0.0222 
     26 CB        -70.2348   28.1867  -75.6455 C.3       9 UNK        -0.1966 
     27 N         -72.6623   27.9319  -75.1318 N.am      9 UNK        -0.4218 
     28 C         -72.7551   27.0819  -74.0972 C.2       9 UNK         0.5020 
     29 O         -71.9182   26.9956  -73.1973 O.2       9 UNK        -0.5274 
     30 CA        -73.9963   26.1706  -74.0622 C.3       8 UNK         0.0270 
     31 CB        -75.1799   26.8783  -73.3795 C.3       8 UNK        -0.1976 
     32 N         -74.3997   25.7170  -75.3963 N.am      8 UNK        -0.4313 
     33 C         -73.6863   24.8791  -76.1641 C.2       8 UNK         0.5041 
     34 O         -72.6371   24.3428  -75.8068 O.2       8 UNK        -0.5577 
     35 CA        -74.2300   24.5968  -77.5729 C.3       7 UNK         0.0284 
     36 CB        -75.1927   23.4001  -77.5523 C.3       7 UNK        -0.1958 
     37 N         -74.9048   25.7685  -78.1358 N.am      7 UNK        -0.4454 
     38 C         -74.2604   26.8032  -78.6957 C.2       7 UNK         0.5089 
     39 O         -73.0432   26.8360  -78.8766 O.2       7 UNK        -0.5125 
     40 CA        -75.1097   28.0204  -79.1051 C.3       6 UNK         0.0408 
     41 CB        -75.6252   27.8565  -80.5435 C.3       6 UNK        -0.1791 
     42 N         -76.2412   28.2680  -78.2080 N.am      6 UNK        -0.4762 
     43 C         -76.1386   28.6135  -76.9152 C.2       6 UNK         0.5007 
     44 O         -75.0654   28.8003  -76.3450 O.2       6 UNK        -0.5032 
     45 CA        -77.4530   28.7207  -76.1154 C.3       5 UNK         0.0783 
     46 C46       -77.9570   30.1850  -76.1026 C.3       11 UNK        -0.0857 
     47 S47       -79.5764   30.3702  -75.2773 S.3       11 UNK        -0.2512 
     48 C48       -79.1894   31.4753  -73.8859 C.3       11 UNK         0.0225 
     49 N         -78.4802   27.7914  -76.5991 N.am      5 UNK        -0.4615 
     50 C         -78.3934   26.4568  -76.6157 C.2       4 UNK         0.5053 
     51 O         -77.3884   25.8294  -76.2694 O.2       4 UNK        -0.5105 
     52 CA        -79.6526   25.7438  -77.1267 C.3       4 UNK         0.0263 
     53 CB        -79.8732   25.9724  -78.6379 C.3       4 UNK        -0.1981 
     54 N         -79.6996   24.3283  -76.7513 N.am      4 UNK        -0.4224 
     55 C         -79.1225   23.2649  -77.3327 C.2       3 UNK         0.4895 
     56 O         -78.4465   23.3203  -78.3601 O.2       3 UNK        -0.5091 
     57 CA        -79.3439   21.8863  -76.6706 C.3       3 UNK         0.0250 
     58 CB        -78.0047   21.1894  -76.3743 C.3       3 UNK        -0.1996 
     59 N         -80.1388   21.9497  -75.4381 N.am      3 UNK        -0.4254 
     60 C         -81.4772   22.0437  -75.3944 C.2       2 UNK         0.5004 
     61 O         -82.1979   21.9708  -76.3897 O.2       2 UNK        -0.5226 
     62 CA        -82.1244   22.3098  -74.0208 C.3       2 UNK         0.0269 
     63 CB        -82.6444   20.9993  -73.4084 C.3       2 UNK        -0.1926 
     64 N         -81.2284   22.9675  -73.0622 N.am      2 UNK        -0.4687 
     65 C         -80.7084   24.1952  -73.2070 C.2       1 UNK         0.5165 
     66 O         -80.9800   24.9416  -74.1487 O.2       1 UNK        -0.5079 
     67 H67       -76.2432   23.8105  -74.5026 H         1 UNK         0.0900 
     68 H68       -75.6881   23.8845  -72.8211 H         1 UNK         0.0900 
     69 H69       -75.8886   22.3251  -73.6169 H         1 UNK         0.0900 
     70 H70       -77.7350   25.2714  -72.6851 H         1 UNK         0.2959 
     71 H71       -79.7818   23.9887  -71.2852 H         1 UNK         0.1079 
     72 H72       -80.9227   26.2522  -71.4146 H         1 UNK         0.0837 
     73 H73       -79.6856   26.7900  -72.5302 H         1 UNK         0.0837 
     74 H74       -79.1103   28.4822  -68.9335 H         1 UNK         0.0685 
     75 H75       -80.3891   28.3586  -70.1114 H         1 UNK         0.0685 
     76 H76       -80.1964   29.5855  -72.2025 H         1 UNK         0.1434 
     77 H77       -76.6166   31.8001  -73.0288 H         1 UNK         0.1329 
     78 H78       -76.7524   29.1154  -69.6893 H         1 UNK         0.1335 
     79 H79       -74.7714   31.7345  -71.5366 H         1 UNK         0.0680 
     80 H80       -75.0801   31.1899  -69.9019 H         1 UNK         0.0680 
     81 H81       -71.7003   29.5665  -70.3893 H         1 UNK         0.1032 
     82 H82       -72.4923   31.0968  -70.1277 H         1 UNK         0.1032 
     83 H83       -72.3141   31.6628  -72.5179 H         1 UNK         0.0461 
     84 H84       -69.2087   30.2680  -72.9441 H         1 UNK         0.3453 
     85 H85       -68.3127   31.5153  -72.1101 H         1 UNK         0.3453 
     86 H86       -71.7412   28.8784  -72.9245 H         1 UNK         0.2984 
     87 H87       -71.8802   29.2869  -76.4460 H         1 UNK         0.0554 
     88 H88       -69.4816   28.8882  -76.0062 H         1 UNK         0.0847 
     89 H89       -70.2981   27.3765  -76.3722 H         1 UNK         0.0847 
     90 H90       -69.8649   27.7686  -74.7090 H         1 UNK         0.0847 
     91 H91       -73.4846   28.0065  -75.7273 H         1 UNK         0.3141 
     92 H92       -73.7434   25.2840  -73.4776 H         1 UNK         0.0743 
     93 H93       -75.0142   26.9477  -72.3042 H         1 UNK         0.0784 
     94 H94       -75.3147   27.8957  -73.7476 H         1 UNK         0.0784 
     95 H95       -76.1174   26.3442  -73.5273 H         1 UNK         0.0784 
     96 H96       -75.2814   26.0611  -75.7574 H         1 UNK         0.3213 
     97 H97       -73.3828   24.3352  -78.2110 H         1 UNK         0.0855 
     98 H98       -76.0659   23.5956  -76.9311 H         1 UNK         0.0814 
     99 H99       -74.7028   22.5102  -77.1551 H         1 UNK         0.0814 
    100 H100      -75.5461   23.1567  -78.5544 H         1 UNK         0.0814 
    101 H101      -75.9047   25.8304  -77.9917 H         1 UNK         0.3105 
    102 H102      -74.4623   28.8994  -79.0733 H         1 UNK         0.0547 
    103 H103      -74.7990   27.6933  -81.2369 H         1 UNK         0.0837 
    104 H104      -76.3015   27.0059  -80.6377 H         1 UNK         0.0837 
    105 H105      -76.1555   28.7475  -80.8799 H         1 UNK         0.0837 
    106 H106      -77.1659   28.1350  -78.5913 H         1 UNK         0.3020 
    107 H107      -77.2276   28.4357  -75.0858 H         1 UNK         0.1245 
    108 H108      -78.0654   30.5636  -77.1210 H         1 UNK         0.0781 
    109 H109      -77.2232   30.8311  -75.6168 H         1 UNK         0.0781 
    110 H110      -80.1230   31.8935  -73.5070 H         1 UNK         0.0836 
    111 H111      -78.6062   32.3249  -74.2450 H         1 UNK         0.0836 
    112 H112      -79.3496   28.2238  -76.8772 H         1 UNK         0.3022 
    113 H113      -80.4979   26.1935  -76.6031 H         1 UNK         0.0747 
    114 H114      -80.7299   25.4069  -79.0043 H         1 UNK         0.0793 
    115 H115      -79.0025   25.6834  -79.2273 H         1 UNK         0.0793 
    116 H116      -80.0684   27.0235  -78.8524 H         1 UNK         0.0793 
    117 H117      -80.1966   24.1661  -75.8828 H         1 UNK         0.3047 
    118 H118      -79.8816   21.2729  -77.3968 H         1 UNK         0.0822 
    119 H119      -78.1575   20.2081  -75.9250 H         1 UNK         0.0807 
    120 H120      -77.3854   21.7754  -75.6974 H         1 UNK         0.0807 
    121 H121      -77.4304   21.0393  -77.2895 H         1 UNK         0.0807 
    122 H122      -79.6190   22.0068  -74.5656 H         1 UNK         0.2946 
    123 H123      -82.9755   22.9733  -74.1907 H         1 UNK         0.1144 
    124 H124      -83.3356   20.4982  -74.0877 H         1 UNK         0.0793 
    125 H125      -83.1830   21.1814  -72.4782 H         1 UNK         0.0793 
    126 H126      -81.8322   20.3025  -73.1971 H         1 UNK         0.0793 
    127 H127      -80.9019   22.3977  -72.2939 H         1 UNK         0.2896 
@<TRIPOS>BOND
     1    1    2 1    
     2    1   67 1    
     3    1   68 1    
     4    1   69 1    
     5    2    3 2    
     6    2    4 am   BACKBONE|DICT|INTERRES
     7    4    5 1    
     8    4   70 1    
     9    5    6 1    
    10    5   65 1    
    11    5   71 1    
    12    6    7 1    
    13    6   72 1    
    14    6   73 1    
    15    7    8 1    
    16    8    9 1    
    17    8   74 1    
    18    8   75 1    
    19    9   10 ar   
    20    9   14 ar   
    21   10   11 ar   
    22   10   76 1    
    23   11   12 ar   
    24   11   48 1    
    25   12   13 ar   
    26   12   77 1    
    27   13   14 ar   
    28   13   15 1    
    29   14   78 1    
    30   15   16 1    
    31   15   79 1    
    32   15   80 1    
    33   16   17 1    
    34   17   18 1    
    35   17   81 1    
    36   17   82 1    
    37   18   19 1    
    38   18   22 1    
    39   18   83 1    
    40   19   20 am   BACKBONE|DICT|INTERRES
    41   19   21 2    
    42   20   84 1    
    43   20   85 1    
    44   22   23 am   BACKBONE|DICT|INTERRES
    45   22   86 1    
    46   23   24 2    
    47   23   25 1    
    48   25   26 1    
    49   25   27 1    
    50   25   87 1    
    51   26   88 1    
    52   26   89 1    
    53   26   90 1    
    54   27   28 am   BACKBONE|DICT|INTERRES
    55   27   91 1    
    56   28   29 2    
    57   28   30 1    
    58   30   31 1    
    59   30   32 1    
    60   30   92 1    
    61   31   93 1    
    62   31   94 1    
    63   31   95 1    
    64   32   33 am   BACKBONE|DICT|INTERRES
    65   32   96 1    
    66   33   34 2    
    67   33   35 1    
    68   35   36 1    
    69   35   37 1    
    70   35   97 1    
    71   36   98 1    
    72   36   99 1    
    73   36  100 1    
    74   37   38 am   BACKBONE|DICT|INTERRES
    75   37  101 1    
    76   38   39 2    
    77   38   40 1    
    78   40   41 1    
    79   40   42 1    
    80   40  102 1    
    81   41  103 1    
    82   41  104 1    
    83   41  105 1    
    84   42   43 am   BACKBONE|DICT|INTERRES
    85   42  106 1    
    86   43   44 2    
    87   43   45 1    
    88   45   46 1    
    89   45   49 1    
    90   45  107 1    
    91   46   47 1    
    92   46  108 1    
    93   46  109 1    
    94   47   48 1    
    95   48  110 1    
    96   48  111 1    
    97   49   50 am   BACKBONE|DICT|INTERRES
    98   49  112 1    
    99   50   51 2    
   100   50   52 1    
   101   52   53 1    
   102   52   54 1    
   103   52  113 1    
   104   53  114 1    
   105   53  115 1    
   106   53  116 1    
   107   54   55 am   BACKBONE|DICT|INTERRES
   108   54  117 1    
   109   55   56 2    
   110   55   57 1    
   111   57   58 1    
   112   57   59 1    
   113   57  118 1    
   114   58  119 1    
   115   58  120 1    
   116   58  121 1    
   117   59   60 am   BACKBONE|DICT|INTERRES
   118   59  122 1    
   119   60   61 2    
   120   60   62 1    
   121   62   63 1    
   122   62   64 1    
   123   62  123 1    
   124   63  124 1    
   125   63  125 1    
   126   63  126 1    
   127   64   65 am   BACKBONE|DICT|INTERRES
   128   64  127 1    
   129   65   66 2    
@<TRIPOS>SUBSTRUCTURE
     1 UNK         1 GROUP             0       ****    0 ROOT    
