@<TRIPOS>MOLECULE
3R135
127   129    1
SMALL
USER_CHARGES


@<TRIPOS>ATOM
      1 CA        -83.2948   27.7903  -75.3238 C.3       0 UNK        -0.1998 
      2 C         -81.9293   28.4342  -75.1406 C.2       0 UNK         0.4909 
      3 O         -81.2892   28.8043  -76.1260 O.2       0 UNK        -0.5240 
      4 N         -81.4763   28.5652  -73.8867 N.am      1 UNK        -0.4739 
      5 CA        -80.1512   29.0674  -73.5064 C.3       1 UNK         0.0864 
      6 C6        -80.0219   29.2578  -71.9698 C.3       11 UNK        -0.0881 
      7 S7        -80.5115   27.7968  -70.9751 S.3       11 UNK        -0.2682 
      8 C8        -79.2564   27.7619  -69.6479 C.3       11 UNK         0.0289 
      9 C9        -77.8234   27.7206  -70.1663 C.ar      11 UNK        -0.0687 
     10 C10       -77.4386   26.7828  -71.1275 C.ar      11 UNK        -0.0823 
     11 C11       -76.1457   26.7929  -71.6553 C.ar      11 UNK        -0.0830 
     12 C12       -75.2115   27.7160  -71.1762 C.ar      11 UNK        -0.1021 
     13 C13       -75.5826   28.6565  -70.2103 C.ar      11 UNK        -0.0753 
     14 C14       -76.8860   28.6485  -69.7046 C.ar      11 UNK        -0.0933 
     15 C15       -74.5976   29.7132  -69.7359 C.3       11 UNK         0.0166 
     16 S16       -74.9739   31.3393  -70.4688 S.3       11 UNK        -0.2615 
     17 C17       -74.1897   31.2204  -72.1133 C.3       11 UNK        -0.0865 
     18 CA        -75.1104   30.6633  -73.2350 C.3       10 UNK         0.0862 
     19 C         -76.2834   31.6208  -73.5994 C.2       10 UNK         0.5551 
     20 N         -76.0631   32.6361  -74.4218 N.am      10 UNK        -0.7319 
     21 O         -77.4139   31.4135  -73.1667 O.2       10 UNK        -0.5018 
     22 N         -74.3279   30.1772  -74.3859 N.am      10 UNK        -0.4509 
     23 C         -73.5369   30.8899  -75.2016 C.2       10 UNK         0.4899 
     24 O         -73.3393   32.1010  -75.0878 O.2       10 UNK        -0.4839 
     25 CA        -72.8706   30.1017  -76.3459 C.3       9 UNK         0.0222 
     26 CB        -71.8017   30.9176  -77.1047 C.3       9 UNK        -0.1966 
     27 N         -72.3359   28.8104  -75.8973 N.am      9 UNK        -0.4218 
     28 C         -71.3614   28.5956  -75.0030 C.2       9 UNK         0.5020 
     29 O         -70.7407   29.4953  -74.4353 O.2       9 UNK        -0.5274 
     30 CA        -70.9927   27.1343  -74.6782 C.3       8 UNK         0.0270 
     31 CB        -71.5584   26.7254  -73.3033 C.3       8 UNK        -0.1976 
     32 N         -71.3274   26.1296  -75.7040 N.am      8 UNK        -0.4313 
     33 C         -72.5344   25.7281  -76.1261 C.2       8 UNK         0.5041 
     34 O         -73.5931   26.2623  -75.7818 O.2       8 UNK        -0.5577 
     35 CA        -72.5577   24.5353  -77.0948 C.3       7 UNK         0.0284 
     36 CB        -71.8872   23.2965  -76.4581 C.3       7 UNK        -0.1958 
     37 N         -73.9497   24.2394  -77.4213 N.am      7 UNK        -0.4454 
     38 C         -74.4005   23.3665  -78.3318 C.2       7 UNK         0.5089 
     39 O         -73.6764   22.7754  -79.1349 O.2       7 UNK        -0.5125 
     40 CA        -75.9183   23.0900  -78.3013 C.3       6 UNK         0.0408 
     41 CB        -76.3359   21.8360  -79.0971 C.3       6 UNK        -0.1791 
     42 N         -76.4168   23.0501  -76.9213 N.am      6 UNK        -0.4762 
     43 C         -76.0815   22.1795  -75.9525 C.2       6 UNK         0.5007 
     44 O         -75.4653   21.1305  -76.1409 O.2       6 UNK        -0.5032 
     45 CA        -76.4396   22.5953  -74.5133 C.3       5 UNK         0.0783 
     46 C46       -75.2560   23.4053  -73.9209 C.3       11 UNK        -0.0857 
     47 S47       -75.5865   24.1409  -72.2860 S.3       11 UNK        -0.2512 
     48 C48       -75.7974   25.8676  -72.8067 C.3       11 UNK         0.0225 
     49 N         -77.7140   23.3227  -74.4926 N.am      5 UNK        -0.4615 
     50 C         -78.9116   22.7298  -74.3908 C.2       4 UNK         0.5053 
     51 O         -79.0657   21.5210  -74.2143 O.2       4 UNK        -0.5105 
     52 CA        -80.1503   23.6304  -74.5339 C.3       4 UNK         0.0263 
     53 CB        -80.5671   24.2067  -73.1711 C.3       4 UNK        -0.1981 
     54 N         -79.9301   24.7149  -75.4951 N.am      4 UNK        -0.4224 
     55 C         -79.8767   24.5256  -76.8241 C.2       3 UNK         0.4895 
     56 O         -80.0969   23.4399  -77.3618 O.2       3 UNK        -0.5091 
     57 CA        -79.5090   25.7217  -77.7217 C.3       3 UNK         0.0250 
     58 CB        -80.7506   26.2422  -78.4637 C.3       3 UNK        -0.1996 
     59 N         -78.8662   26.8326  -77.0178 N.am      3 UNK        -0.4254 
     60 C         -77.6389   26.7911  -76.4787 C.2       2 UNK         0.5004 
     61 O         -76.9183   25.7927  -76.4886 O.2       2 UNK        -0.5226 
     62 CA        -77.1606   28.0640  -75.7563 C.3       2 UNK         0.0269 
     63 CB        -76.5811   29.0438  -76.7890 C.3       2 UNK        -0.1926 
     64 N         -78.2019   28.7493  -74.9766 N.am      2 UNK        -0.4687 
     65 C         -79.0462   28.1721  -74.1075 C.2       1 UNK         0.5165 
     66 O         -79.0332   26.9677  -73.8499 O.2       1 UNK        -0.5079 
     67 H67       -83.7879   27.6037  -74.3699 H         1 UNK         0.0900 
     68 H68       -83.1935   26.8389  -75.8453 H         1 UNK         0.0900 
     69 H69       -83.9392   28.4385  -75.9170 H         1 UNK         0.0900 
     70 H70       -82.0258   28.2077  -73.1179 H         1 UNK         0.2959 
     71 H71       -80.0505   30.0574  -73.9569 H         1 UNK         0.1079 
     72 H72       -79.0072   29.5698  -71.7173 H         1 UNK         0.0837 
     73 H73       -80.6591   30.0869  -71.6589 H         1 UNK         0.0837 
     74 H74       -79.4104   28.6316  -69.0072 H         1 UNK         0.0685 
     75 H75       -79.4295   26.8842  -69.0241 H         1 UNK         0.0685 
     76 H76       -78.1637   26.0758  -71.5054 H         1 UNK         0.1434 
     77 H77       -74.2114   27.7354  -71.5867 H         1 UNK         0.1329 
     78 H78       -77.1750   29.3878  -68.9701 H         1 UNK         0.1335 
     79 H79       -74.6588   29.7964  -68.6497 H         1 UNK         0.0680 
     80 H80       -73.5696   29.4253  -69.9608 H         1 UNK         0.0680 
     81 H81       -73.8199   32.2104  -72.3859 H         1 UNK         0.1032 
     82 H82       -73.2990   30.5969  -72.0215 H         1 UNK         0.1032 
     83 H83       -75.5883   29.7640  -72.8509 H         1 UNK         0.0461 
     84 H84       -76.8153   33.2567  -74.6738 H         1 UNK         0.3453 
     85 H85       -75.1270   32.7794  -74.7848 H         1 UNK         0.3453 
     86 H86       -74.4157   29.1904  -74.5762 H         1 UNK         0.2984 
     87 H87       -73.6629   29.8712  -77.0583 H         1 UNK         0.0554 
     88 H88       -71.3593   30.3370  -77.9140 H         1 UNK         0.0847 
     89 H89       -70.9959   31.2453  -76.4471 H         1 UNK         0.0847 
     90 H90       -72.2381   31.8124  -77.5502 H         1 UNK         0.0847 
     91 H91       -72.8331   27.9809  -76.2119 H         1 UNK         0.3141 
     92 H92       -69.9045   27.1135  -74.5993 H         1 UNK         0.0743 
     93 H93       -72.6469   26.7433  -73.2926 H         1 UNK         0.0784 
     94 H94       -71.2369   25.7224  -73.0230 H         1 UNK         0.0784 
     95 H95       -71.2170   27.4056  -72.5218 H         1 UNK         0.0784 
     96 H96       -70.5242   25.6594  -76.0992 H         1 UNK         0.3213 
     97 H97       -72.0327   24.8192  -78.0089 H         1 UNK         0.0855 
     98 H98       -72.3866   23.0023  -75.5342 H         1 UNK         0.0814 
     99 H99       -70.8399   23.4818  -76.2184 H         1 UNK         0.0814 
    100 H100      -71.9032   22.4378  -77.1289 H         1 UNK         0.0814 
    101 H101      -74.6141   24.7613  -76.8577 H         1 UNK         0.3105 
    102 H102      -76.3956   23.9516  -78.7703 H         1 UNK         0.0547 
    103 H103      -76.0886   21.9474  -80.1534 H         1 UNK         0.0837 
    104 H104      -75.8301   20.9382  -78.7415 H         1 UNK         0.0837 
    105 H105      -77.4105   21.6658  -79.0315 H         1 UNK         0.0837 
    106 H106      -76.8682   23.9137  -76.6308 H         1 UNK         0.3020 
    107 H107      -76.5432   21.6811  -73.9237 H         1 UNK         0.1245 
    108 H108      -74.9489   24.1978  -74.6056 H         1 UNK         0.0781 
    109 H109      -74.3826   22.7588  -73.8158 H         1 UNK         0.0781 
    110 H110      -76.5930   25.9139  -73.5498 H         1 UNK         0.0836 
    111 H111      -74.8934   26.2088  -73.3110 H         1 UNK         0.0836 
    112 H112      -77.6743   24.3211  -74.6384 H         1 UNK         0.3022 
    113 H113      -80.9731   23.0127  -74.9005 H         1 UNK         0.0747 
    114 H114      -81.4147   24.8858  -73.2655 H         1 UNK         0.0793 
    115 H115      -80.8620   23.4094  -72.4880 H         1 UNK         0.0793 
    116 H116      -79.7534   24.7526  -72.6945 H         1 UNK         0.0793 
    117 H117      -79.7091   25.6273  -75.1048 H         1 UNK         0.3047 
    118 H118      -78.8009   25.3523  -78.4668 H         1 UNK         0.0822 
    119 H119      -80.4946   27.0483  -79.1515 H         1 UNK         0.0807 
    120 H120      -81.5061   26.6172  -77.7734 H         1 UNK         0.0807 
    121 H121      -81.2142   25.4501  -79.0533 H         1 UNK         0.0807 
    122 H122      -79.4159   27.6759  -76.9022 H         1 UNK         0.2946 
    123 H123      -76.3679   27.7736  -75.0654 H         1 UNK         0.1144 
    124 H124      -77.3192   29.3143  -77.5454 H         1 UNK         0.0793 
    125 H125      -75.7322   28.5987  -77.3100 H         1 UNK         0.0793 
    126 H126      -76.2386   29.9680  -76.3273 H         1 UNK         0.0793 
    127 H127      -78.3012   29.7407  -75.1437 H         1 UNK         0.2896 
@<TRIPOS>BOND
     1    1    2 1    
     2    1   67 1    
     3    1   68 1    
     4    1   69 1    
     5    2    3 2    
     6    2    4 am   BACKBONE|DICT|INTERRES
     7    4    5 1    
     8    4   70 1    
     9    5    6 1    
    10    5   65 1    
    11    5   71 1    
    12    6    7 1    
    13    6   72 1    
    14    6   73 1    
    15    7    8 1    
    16    8    9 1    
    17    8   74 1    
    18    8   75 1    
    19    9   10 ar   
    20    9   14 ar   
    21   10   11 ar   
    22   10   76 1    
    23   11   12 ar   
    24   11   48 1    
    25   12   13 ar   
    26   12   77 1    
    27   13   14 ar   
    28   13   15 1    
    29   14   78 1    
    30   15   16 1    
    31   15   79 1    
    32   15   80 1    
    33   16   17 1    
    34   17   18 1    
    35   17   81 1    
    36   17   82 1    
    37   18   19 1    
    38   18   22 1    
    39   18   83 1    
    40   19   20 am   BACKBONE|DICT|INTERRES
    41   19   21 2    
    42   20   84 1    
    43   20   85 1    
    44   22   23 am   BACKBONE|DICT|INTERRES
    45   22   86 1    
    46   23   24 2    
    47   23   25 1    
    48   25   26 1    
    49   25   27 1    
    50   25   87 1    
    51   26   88 1    
    52   26   89 1    
    53   26   90 1    
    54   27   28 am   BACKBONE|DICT|INTERRES
    55   27   91 1    
    56   28   29 2    
    57   28   30 1    
    58   30   31 1    
    59   30   32 1    
    60   30   92 1    
    61   31   93 1    
    62   31   94 1    
    63   31   95 1    
    64   32   33 am   BACKBONE|DICT|INTERRES
    65   32   96 1    
    66   33   34 2    
    67   33   35 1    
    68   35   36 1    
    69   35   37 1    
    70   35   97 1    
    71   36   98 1    
    72   36   99 1    
    73   36  100 1    
    74   37   38 am   BACKBONE|DICT|INTERRES
    75   37  101 1    
    76   38   39 2    
    77   38   40 1    
    78   40   41 1    
    79   40   42 1    
    80   40  102 1    
    81   41  103 1    
    82   41  104 1    
    83   41  105 1    
    84   42   43 am   BACKBONE|DICT|INTERRES
    85   42  106 1    
    86   43   44 2    
    87   43   45 1    
    88   45   46 1    
    89   45   49 1    
    90   45  107 1    
    91   46   47 1    
    92   46  108 1    
    93   46  109 1    
    94   47   48 1    
    95   48  110 1    
    96   48  111 1    
    97   49   50 am   BACKBONE|DICT|INTERRES
    98   49  112 1    
    99   50   51 2    
   100   50   52 1    
   101   52   53 1    
   102   52   54 1    
   103   52  113 1    
   104   53  114 1    
   105   53  115 1    
   106   53  116 1    
   107   54   55 am   BACKBONE|DICT|INTERRES
   108   54  117 1    
   109   55   56 2    
   110   55   57 1    
   111   57   58 1    
   112   57   59 1    
   113   57  118 1    
   114   58  119 1    
   115   58  120 1    
   116   58  121 1    
   117   59   60 am   BACKBONE|DICT|INTERRES
   118   59  122 1    
   119   60   61 2    
   120   60   62 1    
   121   62   63 1    
   122   62   64 1    
   123   62  123 1    
   124   63  124 1    
   125   63  125 1    
   126   63  126 1    
   127   64   65 am   BACKBONE|DICT|INTERRES
   128   64  127 1    
   129   65   66 2    
@<TRIPOS>SUBSTRUCTURE
     1 UNK         1 GROUP             0       ****    0 ROOT    
