@<TRIPOS>MOLECULE
3R135
127   129    1
SMALL
USER_CHARGES


@<TRIPOS>ATOM
      1 CA        -82.0335   27.5555  -75.8620 C.3       0 UNK        -0.1998 
      2 C         -81.0332   26.8776  -74.9397 C.2       0 UNK         0.4909 
      3 O         -79.9658   26.4602  -75.3924 O.2       0 UNK        -0.5240 
      4 N         -81.3559   26.7751  -73.6415 N.am      1 UNK        -0.4739 
      5 CA        -80.5201   26.0979  -72.6391 C.3       1 UNK         0.0864 
      6 C6        -80.9797   26.3966  -71.1913 C.3       11 UNK        -0.0881 
      7 S7        -79.5636   26.5473  -70.0492 S.3       11 UNK        -0.2682 
      8 C8        -79.6836   28.2849  -69.5143 C.3       11 UNK         0.0289 
      9 C9        -78.9584   29.2473  -70.4481 C.ar      11 UNK        -0.0687 
     10 C10       -79.5878   29.7435  -71.5966 C.ar      11 UNK        -0.0823 
     11 C11       -78.9491   30.6933  -72.4030 C.ar      11 UNK        -0.0830 
     12 C12       -77.6800   31.1522  -72.0444 C.ar      11 UNK        -0.1021 
     13 C13       -77.0311   30.6492  -70.9159 C.ar      11 UNK        -0.0753 
     14 C14       -77.6714   29.6918  -70.1239 C.ar      11 UNK        -0.0933 
     15 C15       -75.6523   31.1742  -70.5487 C.3       11 UNK         0.0166 
     16 S16       -74.4114   30.7216  -71.7991 S.3       11 UNK        -0.2615 
     17 C17       -74.1438   28.9593  -71.4148 C.3       11 UNK        -0.0865 
     18 CA        -72.7525   28.4886  -71.9151 C.3       10 UNK         0.0862 
     19 C         -72.3127   27.1287  -71.2971 C.2       10 UNK         0.5551 
     20 N         -71.5749   26.2844  -72.0078 N.am      10 UNK        -0.7319 
     21 O         -72.6237   26.8364  -70.1450 O.2       10 UNK        -0.5018 
     22 N         -72.6999   28.4847  -73.3845 N.am      10 UNK        -0.4509 
     23 C         -71.7643   29.0655  -74.1420 C.2       10 UNK         0.4899 
     24 O         -70.8463   29.7580  -73.6986 O.2       10 UNK        -0.4839 
     25 CA        -71.8662   28.7823  -75.6560 C.3       9 UNK         0.0222 
     26 CB        -70.6377   29.2790  -76.4468 C.3       9 UNK        -0.1966 
     27 N         -72.1273   27.3651  -75.9472 N.am      9 UNK        -0.4218 
     28 C         -71.4064   26.3072  -75.5418 C.2       9 UNK         0.5020 
     29 O         -70.3732   26.3925  -74.8766 O.2       9 UNK        -0.5274 
     30 CA        -71.9443   24.9072  -75.8798 C.3       8 UNK         0.0270 
     31 CB        -72.4769   24.2210  -74.6109 C.3       8 UNK        -0.1976 
     32 N         -72.9890   24.9174  -76.9097 N.am      8 UNK        -0.4313 
     33 C         -72.7300   24.8952  -78.2239 C.2       8 UNK         0.5041 
     34 O         -71.5956   24.9278  -78.7026 O.2       8 UNK        -0.5577 
     35 CA        -73.9393   24.8031  -79.1605 C.3       7 UNK         0.0284 
     36 CB        -74.5401   23.3867  -79.1385 C.3       7 UNK        -0.1958 
     37 N         -74.9755   25.7823  -78.8312 N.am      7 UNK        -0.4454 
     38 C         -74.9699   27.0486  -79.2681 C.2       7 UNK         0.5089 
     39 O         -74.0314   27.5576  -79.8813 O.2       7 UNK        -0.5125 
     40 CA        -76.2373   27.8769  -79.0212 C.3       6 UNK         0.0408 
     41 CB        -77.3948   27.3611  -79.8933 C.3       6 UNK        -0.1791 
     42 N         -76.6503   27.8566  -77.6197 N.am      6 UNK        -0.4762 
     43 C         -76.4509   28.8588  -76.7505 C.2       6 UNK         0.5007 
     44 O         -75.7982   29.8708  -77.0081 O.2       6 UNK        -0.5032 
     45 CA        -77.0995   28.7024  -75.3580 C.3       5 UNK         0.0783 
     46 C46       -78.5354   29.2831  -75.3397 C.3       11 UNK        -0.0857 
     47 S47       -78.6083   31.0920  -75.1482 S.3       11 UNK        -0.2512 
     48 C48       -79.6339   31.2531  -73.6448 C.3       11 UNK         0.0225 
     49 N         -77.1069   27.3030  -74.9239 N.am      5 UNK        -0.4615 
     50 C         -76.0099   26.6166  -74.5829 C.2       4 UNK         0.5053 
     51 O         -74.8781   27.0994  -74.5638 O.2       4 UNK        -0.5105 
     52 CA        -76.1855   25.1378  -74.2127 C.3       4 UNK         0.0263 
     53 CB        -76.2129   24.9795  -72.6844 C.3       4 UNK        -0.1981 
     54 N         -77.3582   24.4874  -74.8031 N.am      4 UNK        -0.4224 
     55 C         -77.5271   24.2673  -76.1188 C.2       3 UNK         0.4895 
     56 O         -76.7689   24.7279  -76.9738 O.2       3 UNK        -0.5091 
     57 CA        -78.7036   23.3872  -76.5806 C.3       3 UNK         0.0250 
     58 CB        -78.2009   22.1487  -77.3441 C.3       3 UNK        -0.1996 
     59 N         -79.5578   22.9695  -75.4693 N.am      3 UNK        -0.4254 
     60 C         -80.8864   22.8326  -75.5175 C.2       2 UNK         0.5004 
     61 O         -81.5496   22.8629  -76.5545 O.2       2 UNK        -0.5226 
     62 CA        -81.6055   22.7236  -74.1603 C.3       2 UNK         0.0269 
     63 CB        -81.1363   21.5133  -73.3251 C.3       2 UNK        -0.1926 
     64 N         -81.5154   23.9943  -73.4244 N.am      2 UNK        -0.4687 
     65 C         -80.4164   24.5827  -72.9216 C.2       1 UNK         0.5165 
     66 O         -79.3323   24.0118  -72.7932 O.2       1 UNK        -0.5079 
     67 H67       -82.9420   27.8467  -75.3355 H         1 UNK         0.0900 
     68 H68       -82.3109   26.8800  -76.6707 H         1 UNK         0.0900 
     69 H69       -81.5932   28.4501  -76.3009 H         1 UNK         0.0900 
     70 H70       -82.2401   27.1411  -73.3171 H         1 UNK         0.2959 
     71 H71       -79.5145   26.5062  -72.7691 H         1 UNK         0.1079 
     72 H72       -81.5530   27.3232  -71.1584 H         1 UNK         0.0837 
     73 H73       -81.6603   25.6307  -70.8136 H         1 UNK         0.0837 
     74 H74       -80.7288   28.5785  -69.4073 H         1 UNK         0.0685 
     75 H75       -79.2581   28.3580  -68.5122 H         1 UNK         0.0685 
     76 H76       -80.5823   29.4051  -71.8509 H         1 UNK         0.1434 
     77 H77       -77.1870   31.8973  -72.6542 H         1 UNK         0.1329 
     78 H78       -77.1797   29.3126  -69.2385 H         1 UNK         0.1335 
     79 H79       -75.6965   32.2619  -70.4785 H         1 UNK         0.0680 
     80 H80       -75.3387   30.8178  -69.5662 H         1 UNK         0.0680 
     81 H81       -74.9434   28.3649  -71.8608 H         1 UNK         0.1032 
     82 H82       -74.2316   28.8318  -70.3345 H         1 UNK         0.1032 
     83 H83       -72.0187   29.1998  -71.5322 H         1 UNK         0.0461 
     84 H84       -71.2867   25.4158  -71.5873 H         1 UNK         0.3453 
     85 H85       -71.2554   26.5267  -72.9369 H         1 UNK         0.3453 
     86 H86       -73.4215   27.9319  -73.8443 H         1 UNK         0.2984 
     87 H87       -72.7373   29.3344  -76.0126 H         1 UNK         0.0554 
     88 H88       -70.7522   29.0928  -77.5146 H         1 UNK         0.0847 
     89 H89       -69.7202   28.7901  -76.1175 H         1 UNK         0.0847 
     90 H90       -70.4983   30.3531  -76.3188 H         1 UNK         0.0847 
     91 H91       -72.9904   27.1727  -76.4351 H         1 UNK         0.3141 
     92 H92       -71.1017   24.3145  -76.2432 H         1 UNK         0.0743 
     93 H93       -73.1600   24.8647  -74.0575 H         1 UNK         0.0784 
     94 H94       -72.9895   23.2861  -74.8379 H         1 UNK         0.0784 
     95 H95       -71.6556   23.9801  -73.9349 H         1 UNK         0.0784 
     96 H96       -73.9514   24.8907  -76.6045 H         1 UNK         0.3213 
     97 H97       -73.5865   24.9936  -80.1770 H         1 UNK         0.0855 
     98 H98       -74.9139   23.1141  -78.1510 H         1 UNK         0.0814 
     99 H99       -73.7932   22.6431  -79.4196 H         1 UNK         0.0814 
    100 H100      -75.3667   23.2970  -79.8435 H         1 UNK         0.0814 
    101 H101      -75.7605   25.4443  -78.2758 H         1 UNK         0.3105 
    102 H102      -76.0275   28.9022  -79.3339 H         1 UNK         0.0547 
    103 H103      -77.1156   27.3521  -80.9479 H         1 UNK         0.0837 
    104 H104      -77.6894   26.3457  -79.6248 H         1 UNK         0.0837 
    105 H105      -78.2738   27.9986  -79.7984 H         1 UNK         0.0837 
    106 H106      -77.1363   27.0297  -77.2973 H         1 UNK         0.3020 
    107 H107      -76.4875   29.2601  -74.6440 H         1 UNK         0.1245 
    108 H108      -79.0787   28.8531  -74.4992 H         1 UNK         0.0781 
    109 H109      -79.0953   28.9970  -76.2322 H         1 UNK         0.0781 
    110 H110      -80.5949   30.7652  -73.8161 H         1 UNK         0.0836 
    111 H111      -79.8511   32.3092  -73.4793 H         1 UNK         0.0836 
    112 H112      -78.0028   26.8262  -74.9569 H         1 UNK         0.3022 
    113 H113      -75.3164   24.6031  -74.5935 H         1 UNK         0.0747 
    114 H114      -76.2737   23.9308  -72.3934 H         1 UNK         0.0793 
    115 H115      -75.3075   25.3883  -72.2327 H         1 UNK         0.0793 
    116 H116      -77.0616   25.5005  -72.2390 H         1 UNK         0.0793 
    117 H117      -78.0607   24.1813  -74.1378 H         1 UNK         0.3047 
    118 H118      -79.2892   24.0066  -77.2636 H         1 UNK         0.0822 
    119 H119      -79.0312   21.5615  -77.7367 H         1 UNK         0.0807 
    120 H120      -77.6025   21.4987  -76.7047 H         1 UNK         0.0807 
    121 H121      -77.5797   22.4351  -78.1938 H         1 UNK         0.0807 
    122 H122      -79.1341   22.9422  -74.5507 H         1 UNK         0.2946 
    123 H123      -82.6644   22.5730  -74.3788 H         1 UNK         0.1144 
    124 H124      -81.6956   21.4407  -72.3924 H         1 UNK         0.0793 
    125 H125      -80.0770   21.5547  -73.0731 H         1 UNK         0.0793 
    126 H126      -81.2988   20.5835  -73.8717 H         1 UNK         0.0793 
    127 H127      -82.3366   24.5786  -73.5010 H         1 UNK         0.2896 
@<TRIPOS>BOND
     1    1    2 1    
     2    1   67 1    
     3    1   68 1    
     4    1   69 1    
     5    2    3 2    
     6    2    4 am   BACKBONE|DICT|INTERRES
     7    4    5 1    
     8    4   70 1    
     9    5    6 1    
    10    5   65 1    
    11    5   71 1    
    12    6    7 1    
    13    6   72 1    
    14    6   73 1    
    15    7    8 1    
    16    8    9 1    
    17    8   74 1    
    18    8   75 1    
    19    9   10 ar   
    20    9   14 ar   
    21   10   11 ar   
    22   10   76 1    
    23   11   12 ar   
    24   11   48 1    
    25   12   13 ar   
    26   12   77 1    
    27   13   14 ar   
    28   13   15 1    
    29   14   78 1    
    30   15   16 1    
    31   15   79 1    
    32   15   80 1    
    33   16   17 1    
    34   17   18 1    
    35   17   81 1    
    36   17   82 1    
    37   18   19 1    
    38   18   22 1    
    39   18   83 1    
    40   19   20 am   BACKBONE|DICT|INTERRES
    41   19   21 2    
    42   20   84 1    
    43   20   85 1    
    44   22   23 am   BACKBONE|DICT|INTERRES
    45   22   86 1    
    46   23   24 2    
    47   23   25 1    
    48   25   26 1    
    49   25   27 1    
    50   25   87 1    
    51   26   88 1    
    52   26   89 1    
    53   26   90 1    
    54   27   28 am   BACKBONE|DICT|INTERRES
    55   27   91 1    
    56   28   29 2    
    57   28   30 1    
    58   30   31 1    
    59   30   32 1    
    60   30   92 1    
    61   31   93 1    
    62   31   94 1    
    63   31   95 1    
    64   32   33 am   BACKBONE|DICT|INTERRES
    65   32   96 1    
    66   33   34 2    
    67   33   35 1    
    68   35   36 1    
    69   35   37 1    
    70   35   97 1    
    71   36   98 1    
    72   36   99 1    
    73   36  100 1    
    74   37   38 am   BACKBONE|DICT|INTERRES
    75   37  101 1    
    76   38   39 2    
    77   38   40 1    
    78   40   41 1    
    79   40   42 1    
    80   40  102 1    
    81   41  103 1    
    82   41  104 1    
    83   41  105 1    
    84   42   43 am   BACKBONE|DICT|INTERRES
    85   42  106 1    
    86   43   44 2    
    87   43   45 1    
    88   45   46 1    
    89   45   49 1    
    90   45  107 1    
    91   46   47 1    
    92   46  108 1    
    93   46  109 1    
    94   47   48 1    
    95   48  110 1    
    96   48  111 1    
    97   49   50 am   BACKBONE|DICT|INTERRES
    98   49  112 1    
    99   50   51 2    
   100   50   52 1    
   101   52   53 1    
   102   52   54 1    
   103   52  113 1    
   104   53  114 1    
   105   53  115 1    
   106   53  116 1    
   107   54   55 am   BACKBONE|DICT|INTERRES
   108   54  117 1    
   109   55   56 2    
   110   55   57 1    
   111   57   58 1    
   112   57   59 1    
   113   57  118 1    
   114   58  119 1    
   115   58  120 1    
   116   58  121 1    
   117   59   60 am   BACKBONE|DICT|INTERRES
   118   59  122 1    
   119   60   61 2    
   120   60   62 1    
   121   62   63 1    
   122   62   64 1    
   123   62  123 1    
   124   63  124 1    
   125   63  125 1    
   126   63  126 1    
   127   64   65 am   BACKBONE|DICT|INTERRES
   128   64  127 1    
   129   65   66 2    
@<TRIPOS>SUBSTRUCTURE
     1 UNK         1 GROUP             0       ****    0 ROOT    
