@<TRIPOS>MOLECULE
3R135
127   129    1
SMALL
USER_CHARGES


@<TRIPOS>ATOM
      1 CA        -81.8249   28.5551  -69.7576 C.3       0 UNK        -0.1998 
      2 C         -82.3027   28.0411  -71.1077 C.2       0 UNK         0.4909 
      3 O         -83.2763   27.2892  -71.1697 O.2       0 UNK        -0.5240 
      4 N         -81.6276   28.4503  -72.1883 N.am      1 UNK        -0.4739 
      5 CA        -81.8600   27.9809  -73.5573 C.3       1 UNK         0.0864 
      6 C6        -81.2489   28.9583  -74.6010 C.3       11 UNK        -0.0881 
      7 S7        -79.4205   29.0304  -74.6611 S.3       11 UNK        -0.2682 
      8 C8        -79.0266   30.3013  -73.4122 C.3       11 UNK         0.0289 
      9 C9        -78.0403   29.7970  -72.3625 C.ar      11 UNK        -0.0687 
     10 C10       -78.2152   28.5505  -71.7527 C.ar      11 UNK        -0.0823 
     11 C11       -77.3081   28.0833  -70.8013 C.ar      11 UNK        -0.0830 
     12 C12       -76.2130   28.8757  -70.4498 C.ar      11 UNK        -0.1021 
     13 C13       -76.0263   30.1281  -71.0416 C.ar      11 UNK        -0.0753 
     14 C14       -76.9495   30.5877  -71.9882 C.ar      11 UNK        -0.0933 
     15 C15       -74.8279   30.9797  -70.6485 C.3       11 UNK         0.0166 
     16 S16       -73.3702   30.6140  -71.6790 S.3       11 UNK        -0.2615 
     17 C17       -73.8363   31.4095  -73.2537 C.3       11 UNK        -0.0865 
     18 CA        -74.1894   30.3841  -74.3757 C.3       10 UNK         0.0862 
     19 C         -74.9378   31.0563  -75.5703 C.2       10 UNK         0.5551 
     20 N         -74.8066   30.5707  -76.7975 N.am      10 UNK        -0.7319 
     21 O         -75.6711   32.0249  -75.3847 O.2       10 UNK        -0.5018 
     22 N         -73.0355   29.5432  -74.7556 N.am      10 UNK        -0.4509 
     23 C         -71.8982   29.9879  -75.3094 C.2       10 UNK         0.4899 
     24 O         -71.7092   31.1682  -75.6080 O.2       10 UNK        -0.4839 
     25 CA        -70.7603   28.9901  -75.6048 C.3       9 UNK         0.0222 
     26 CB        -69.5258   29.2853  -74.7280 C.3       9 UNK        -0.1966 
     27 N         -71.1060   27.5638  -75.5644 N.am      9 UNK        -0.4218 
     28 C         -71.4217   26.7848  -74.5214 C.2       9 UNK         0.5020 
     29 O         -71.5312   27.1990  -73.3671 O.2       9 UNK        -0.5274 
     30 CA        -71.6401   25.2855  -74.8331 C.3       8 UNK         0.0270 
     31 CB        -72.1147   24.4883  -73.6040 C.3       8 UNK        -0.1976 
     32 N         -72.5796   25.0663  -75.9388 N.am      8 UNK        -0.4313 
     33 C         -72.3227   25.2781  -77.2372 C.2       8 UNK         0.5041 
     34 O         -71.2171   25.6170  -77.6624 O.2       8 UNK        -0.5577 
     35 CA        -73.5031   25.1729  -78.2157 C.3       7 UNK         0.0284 
     36 CB        -73.6937   23.7222  -78.6850 C.3       7 UNK        -0.1958 
     37 N         -74.7543   25.6914  -77.6538 N.am      7 UNK        -0.4454 
     38 C         -74.9554   26.9674  -77.2877 C.2       7 UNK         0.5089 
     39 O         -74.1246   27.8630  -77.4452 O.2       7 UNK        -0.5125 
     40 CA        -76.2912   27.2917  -76.5930 C.3       6 UNK         0.0408 
     41 CB        -77.4238   27.4235  -77.6220 C.3       6 UNK        -0.1791 
     42 N         -76.6469   26.2975  -75.5790 N.am      6 UNK        -0.4762 
     43 C         -75.9287   26.0573  -74.4701 C.2       6 UNK         0.5007 
     44 O         -74.9454   26.7202  -74.1408 O.2       6 UNK        -0.5032 
     45 CA        -76.3244   24.8217  -73.6356 C.3       5 UNK         0.0783 
     46 C46       -77.3269   25.1509  -72.5021 C.3       11 UNK        -0.0857 
     47 S47       -76.4759   25.4432  -70.9145 S.3       11 UNK        -0.2512 
     48 C48       -77.5164   26.7247  -70.1514 C.3       11 UNK         0.0225 
     49 N         -76.8019   23.7328  -74.4913 N.am      5 UNK        -0.4615 
     50 C         -75.9936   22.9573  -75.2251 C.2       4 UNK         0.5053 
     51 O         -74.7698   23.0840  -75.2546 O.2       4 UNK        -0.5105 
     52 CA        -76.6642   21.8766  -76.0886 C.3       4 UNK         0.0263 
     53 CB        -76.9844   20.6313  -75.2466 C.3       4 UNK        -0.1981 
     54 N         -77.8821   22.3514  -76.7496 N.am      4 UNK        -0.4224 
     55 C         -77.9000   23.2977  -77.6983 C.2       3 UNK         0.4895 
     56 O         -76.8918   23.8572  -78.1252 O.2       3 UNK        -0.5091 
     57 CA        -79.2731   23.7168  -78.2455 C.3       3 UNK         0.0250 
     58 CB        -79.6954   22.7935  -79.3995 C.3       3 UNK        -0.1996 
     59 N         -80.3403   23.7670  -77.2400 N.am      3 UNK        -0.4254 
     60 C         -80.3297   24.5317  -76.1386 C.2       2 UNK         0.5004 
     61 O         -79.3552   25.1949  -75.7782 O.2       2 UNK        -0.5226 
     62 CA        -81.6276   24.5291  -75.3124 C.3       2 UNK         0.0269 
     63 CB        -81.5967   23.4393  -74.2207 C.3       2 UNK        -0.1926 
     64 N         -81.9542   25.8613  -74.7799 N.am      2 UNK        -0.4687 
     65 C         -81.3923   26.5180  -73.7531 C.2       1 UNK         0.5165 
     66 O         -80.5537   26.0338  -72.9891 O.2       1 UNK        -0.5079 
     67 H67       -82.6166   29.1229  -69.2698 H         1 UNK         0.0900 
     68 H68       -80.9519   29.2011  -69.8520 H         1 UNK         0.0900 
     69 H69       -81.5573   27.7186  -69.1125 H         1 UNK         0.0900 
     70 H70       -80.8274   29.0526  -72.0721 H         1 UNK         0.2959 
     71 H71       -82.9423   27.9850  -73.7078 H         1 UNK         0.1079 
     72 H72       -81.5889   28.6798  -75.5999 H         1 UNK         0.0837 
     73 H73       -81.6406   29.9644  -74.4433 H         1 UNK         0.0837 
     74 H74       -78.6165   31.1669  -73.9352 H         1 UNK         0.0685 
     75 H75       -79.9301   30.6483  -72.9110 H         1 UNK         0.0685 
     76 H76       -79.0478   27.9242  -72.0336 H         1 UNK         0.1434 
     77 H77       -75.5013   28.5135  -69.7204 H         1 UNK         0.1329 
     78 H78       -76.8143   31.5585  -72.4438 H         1 UNK         0.1335 
     79 H79       -74.5712   30.7922  -69.6047 H         1 UNK         0.0680 
     80 H80       -75.0729   32.0411  -70.7106 H         1 UNK         0.0680 
     81 H81       -74.6674   32.0878  -73.0626 H         1 UNK         0.1032 
     82 H82       -73.0182   32.0590  -73.5658 H         1 UNK         0.1032 
     83 H83       -74.9209   29.6888  -73.9620 H         1 UNK         0.0461 
     84 H84       -75.2938   31.0176  -77.5566 H         1 UNK         0.3453 
     85 H85       -74.2817   29.7177  -76.9644 H         1 UNK         0.3453 
     86 H86       -73.1150   28.5605  -74.5283 H         1 UNK         0.2984 
     87 H87       -70.4712   29.1757  -76.6403 H         1 UNK         0.0554 
     88 H88       -69.7430   29.1613  -73.6666 H         1 UNK         0.0847 
     89 H89       -69.1841   30.3118  -74.8675 H         1 UNK         0.0847 
     90 H90       -68.6915   28.6309  -74.9803 H         1 UNK         0.0847 
     91 H91       -71.0748   27.0895  -76.4649 H         1 UNK         0.3141 
     92 H92       -70.6700   24.8812  -75.1294 H         1 UNK         0.0743 
     93 H93       -73.0565   24.8752  -73.2152 H         1 UNK         0.0784 
     94 H94       -72.2563   23.4338  -73.8418 H         1 UNK         0.0784 
     95 H95       -71.3834   24.5432  -72.7967 H         1 UNK         0.0784 
     96 H96       -73.5104   24.7564  -75.6827 H         1 UNK         0.3213 
     97 H97       -73.2593   25.7820  -79.0887 H         1 UNK         0.0855 
     98 H98       -73.9802   23.0648  -77.8640 H         1 UNK         0.0814 
     99 H99       -72.7723   23.3264  -79.1143 H         1 UNK         0.0814 
    100 H100      -74.4639   23.6526  -79.4532 H         1 UNK         0.0814 
    101 H101      -75.5222   25.0295  -77.5660 H         1 UNK         0.3105 
    102 H102      -76.1879   28.2494  -76.0809 H         1 UNK         0.0547 
    103 H103      -77.2127   28.2268  -78.3286 H         1 UNK         0.0837 
    104 H104      -77.5566   26.5087  -78.1986 H         1 UNK         0.0837 
    105 H105      -78.3742   27.6546  -77.1414 H         1 UNK         0.0837 
    106 H106      -77.4924   25.7555  -75.7415 H         1 UNK         0.3020 
    107 H107      -75.4023   24.4616  -73.1739 H         1 UNK         0.1245 
    108 H108      -78.0156   24.3206  -72.3377 H         1 UNK         0.0781 
    109 H109      -77.9572   25.9985  -72.7689 H         1 UNK         0.0781 
    110 H110      -77.2733   26.7897  -69.0899 H         1 UNK         0.0836 
    111 H111      -78.5643   26.4234  -70.2052 H         1 UNK         0.0836 
    112 H112      -77.8024   23.6223  -74.5719 H         1 UNK         0.3022 
    113 H113      -75.9525   21.5877  -76.8652 H         1 UNK         0.0747 
    114 H114      -77.3792   19.8251  -75.8653 H         1 UNK         0.0793 
    115 H115      -76.0864   20.2513  -74.7572 H         1 UNK         0.0793 
    116 H116      -77.7154   20.8451  -74.4658 H         1 UNK         0.0793 
    117 H117      -78.7585   21.9446  -76.4568 H         1 UNK         0.3047 
    118 H118      -79.1640   24.7264  -78.6463 H         1 UNK         0.0822 
    119 H119      -80.6091   23.1469  -79.8778 H         1 UNK         0.0807 
    120 H120      -79.8669   21.7714  -79.0594 H         1 UNK         0.0807 
    121 H121      -78.9241   22.7550  -80.1705 H         1 UNK         0.0807 
    122 H122      -81.1723   23.2343  -77.4506 H         1 UNK         0.2946 
    123 H123      -82.4491   24.2874  -75.9893 H         1 UNK         0.1144 
    124 H124      -81.5498   22.4452  -74.6665 H         1 UNK         0.0793 
    125 H125      -82.4910   23.4733  -73.5985 H         1 UNK         0.0793 
    126 H126      -80.7288   23.5358  -73.5677 H         1 UNK         0.0793 
    127 H127      -82.6246   26.3728  -75.3370 H         1 UNK         0.2896 
@<TRIPOS>BOND
     1    1    2 1    
     2    1   67 1    
     3    1   68 1    
     4    1   69 1    
     5    2    3 2    
     6    2    4 am   BACKBONE|DICT|INTERRES
     7    4    5 1    
     8    4   70 1    
     9    5    6 1    
    10    5   65 1    
    11    5   71 1    
    12    6    7 1    
    13    6   72 1    
    14    6   73 1    
    15    7    8 1    
    16    8    9 1    
    17    8   74 1    
    18    8   75 1    
    19    9   10 ar   
    20    9   14 ar   
    21   10   11 ar   
    22   10   76 1    
    23   11   12 ar   
    24   11   48 1    
    25   12   13 ar   
    26   12   77 1    
    27   13   14 ar   
    28   13   15 1    
    29   14   78 1    
    30   15   16 1    
    31   15   79 1    
    32   15   80 1    
    33   16   17 1    
    34   17   18 1    
    35   17   81 1    
    36   17   82 1    
    37   18   19 1    
    38   18   22 1    
    39   18   83 1    
    40   19   20 am   BACKBONE|DICT|INTERRES
    41   19   21 2    
    42   20   84 1    
    43   20   85 1    
    44   22   23 am   BACKBONE|DICT|INTERRES
    45   22   86 1    
    46   23   24 2    
    47   23   25 1    
    48   25   26 1    
    49   25   27 1    
    50   25   87 1    
    51   26   88 1    
    52   26   89 1    
    53   26   90 1    
    54   27   28 am   BACKBONE|DICT|INTERRES
    55   27   91 1    
    56   28   29 2    
    57   28   30 1    
    58   30   31 1    
    59   30   32 1    
    60   30   92 1    
    61   31   93 1    
    62   31   94 1    
    63   31   95 1    
    64   32   33 am   BACKBONE|DICT|INTERRES
    65   32   96 1    
    66   33   34 2    
    67   33   35 1    
    68   35   36 1    
    69   35   37 1    
    70   35   97 1    
    71   36   98 1    
    72   36   99 1    
    73   36  100 1    
    74   37   38 am   BACKBONE|DICT|INTERRES
    75   37  101 1    
    76   38   39 2    
    77   38   40 1    
    78   40   41 1    
    79   40   42 1    
    80   40  102 1    
    81   41  103 1    
    82   41  104 1    
    83   41  105 1    
    84   42   43 am   BACKBONE|DICT|INTERRES
    85   42  106 1    
    86   43   44 2    
    87   43   45 1    
    88   45   46 1    
    89   45   49 1    
    90   45  107 1    
    91   46   47 1    
    92   46  108 1    
    93   46  109 1    
    94   47   48 1    
    95   48  110 1    
    96   48  111 1    
    97   49   50 am   BACKBONE|DICT|INTERRES
    98   49  112 1    
    99   50   51 2    
   100   50   52 1    
   101   52   53 1    
   102   52   54 1    
   103   52  113 1    
   104   53  114 1    
   105   53  115 1    
   106   53  116 1    
   107   54   55 am   BACKBONE|DICT|INTERRES
   108   54  117 1    
   109   55   56 2    
   110   55   57 1    
   111   57   58 1    
   112   57   59 1    
   113   57  118 1    
   114   58  119 1    
   115   58  120 1    
   116   58  121 1    
   117   59   60 am   BACKBONE|DICT|INTERRES
   118   59  122 1    
   119   60   61 2    
   120   60   62 1    
   121   62   63 1    
   122   62   64 1    
   123   62  123 1    
   124   63  124 1    
   125   63  125 1    
   126   63  126 1    
   127   64   65 am   BACKBONE|DICT|INTERRES
   128   64  127 1    
   129   65   66 2    
@<TRIPOS>SUBSTRUCTURE
     1 UNK         1 GROUP             0       ****    0 ROOT    
