@<TRIPOS>MOLECULE
3R135
127   129    1
SMALL
USER_CHARGES


@<TRIPOS>ATOM
      1 CA        -84.8688   26.9838  -70.3278 C.3       0 UNK        -0.1998 
      2 C         -84.7445   26.9659  -71.8437 C.2       0 UNK         0.4909 
      3 O         -85.4896   26.2482  -72.5114 O.2       0 UNK        -0.5240 
      4 N         -83.8095   27.7527  -72.3919 N.am      1 UNK        -0.4739 
      5 CA        -83.5168   27.8453  -73.8287 C.3       1 UNK         0.0864 
      6 C6        -82.7091   29.1235  -74.1816 C.3       11 UNK        -0.0881 
      7 S7        -81.2840   29.4477  -73.0834 S.3       11 UNK        -0.2682 
      8 C8        -79.9066   28.8466  -74.1032 C.3       11 UNK         0.0289 
      9 C9        -78.6027   28.8572  -73.3221 C.ar      11 UNK        -0.0687 
     10 C10       -78.3810   27.8941  -72.3350 C.ar      11 UNK        -0.0823 
     11 C11       -77.1906   27.8855  -71.6024 C.ar      11 UNK        -0.0830 
     12 C12       -76.2142   28.8498  -71.8682 C.ar      11 UNK        -0.1021 
     13 C13       -76.4261   29.8221  -72.8503 C.ar      11 UNK        -0.0753 
     14 C14       -77.6218   29.8210  -73.5767 C.ar      11 UNK        -0.0933 
     15 C15       -75.3773   30.8947  -73.0962 C.3       11 UNK         0.0166 
     16 S16       -74.1735   30.3912  -74.3633 S.3       11 UNK        -0.2615 
     17 C17       -73.0211   31.8111  -74.2916 C.3       11 UNK        -0.0865 
     18 CA        -71.6198   31.4716  -73.7169 C.3       10 UNK         0.0862 
     19 C         -71.6717   31.0457  -72.2186 C.2       10 UNK         0.5551 
     20 N         -71.2267   29.8508  -71.8490 N.am      10 UNK        -0.7319 
     21 O         -72.1134   31.8236  -71.3765 O.2       10 UNK        -0.5018 
     22 N         -70.8790   30.5696  -74.6126 N.am      10 UNK        -0.4509 
     23 C         -69.5506   30.4126  -74.6372 C.2       10 UNK         0.4899 
     24 O         -68.7810   31.0163  -73.8879 O.2       10 UNK        -0.4839 
     25 CA        -68.9934   29.4124  -75.6739 C.3       9 UNK         0.0222 
     26 CB        -67.4562   29.3155  -75.6362 C.3       9 UNK        -0.1966 
     27 N         -69.5565   28.0657  -75.5243 N.am      9 UNK        -0.4218 
     28 C         -70.7883   27.6939  -75.8951 C.2       9 UNK         0.5020 
     29 O         -71.6043   28.4685  -76.4008 O.2       9 UNK        -0.5274 
     30 CA        -71.1728   26.2321  -75.6060 C.3       8 UNK         0.0270 
     31 CB        -71.3784   26.0192  -74.0959 C.3       8 UNK        -0.1976 
     32 N         -72.3945   25.8464  -76.3175 N.am      8 UNK        -0.4313 
     33 C         -72.4551   25.5919  -77.6340 C.2       8 UNK         0.5041 
     34 O         -71.4590   25.5449  -78.3589 O.2       8 UNK        -0.5577 
     35 CA        -73.8375   25.3285  -78.2666 C.3       7 UNK         0.0284 
     36 CB        -74.0043   23.8361  -78.5973 C.3       7 UNK        -0.1958 
     37 N         -74.9627   25.7543  -77.4349 N.am      7 UNK        -0.4454 
     38 C         -75.3040   27.0231  -77.1734 C.2       7 UNK         0.5089 
     39 O         -74.7732   27.9971  -77.7063 O.2       7 UNK        -0.5125 
     40 CA        -76.4328   27.2437  -76.1462 C.3       6 UNK         0.0408 
     41 CB        -77.7418   27.5586  -76.8859 C.3       6 UNK        -0.1791 
     42 N         -76.6504   26.1144  -75.2293 N.am      6 UNK        -0.4762 
     43 C         -75.7331   25.6096  -74.3874 C.2       6 UNK         0.5007 
     44 O         -74.5840   26.0400  -74.3033 O.2       6 UNK        -0.5032 
     45 CA        -76.1253   24.3525  -73.5846 C.3       5 UNK         0.0783 
     46 C46       -76.9059   24.6669  -72.2887 C.3       11 UNK        -0.0857 
     47 S47       -75.8851   25.4950  -71.0242 S.3       11 UNK        -0.2512 
     48 C48       -76.9739   26.8570  -70.5013 C.3       11 UNK         0.0225 
     49 N         -76.8774   23.4316  -74.4358 N.am      5 UNK        -0.4615 
     50 C         -76.3213   22.5452  -75.2710 C.2       4 UNK         0.5053 
     51 O         -75.1091   22.3519  -75.3546 O.2       4 UNK        -0.5105 
     52 CA        -77.2747   21.7443  -76.1760 C.3       4 UNK         0.0263 
     53 CB        -77.6365   20.4023  -75.5199 C.3       4 UNK        -0.1981 
     54 N         -78.5046   22.4715  -76.5028 N.am      4 UNK        -0.4224 
     55 C         -78.5550   23.5664  -77.2749 C.2       3 UNK         0.4895 
     56 O         -77.5750   24.0494  -77.8411 O.2       3 UNK        -0.5091 
     57 CA        -79.9218   24.2604  -77.4085 C.3       3 UNK         0.0250 
     58 CB        -80.6980   23.6894  -78.6056 C.3       3 UNK        -0.1996 
     59 N         -80.7581   24.1877  -76.2040 N.am      3 UNK        -0.4254 
     60 C         -80.4282   24.6806  -75.0018 C.2       2 UNK         0.5004 
     61 O         -79.3402   25.2020  -74.7494 O.2       2 UNK        -0.5226 
     62 CA        -81.4805   24.5497  -73.8870 C.3       2 UNK         0.0269 
     63 CB        -80.8562   23.9655  -72.6077 C.3       2 UNK        -0.1926 
     64 N         -82.1201   25.8278  -73.5638 N.am      2 UNK        -0.4687 
     65 C         -82.8664   26.5656  -74.4007 C.2       1 UNK         0.5165 
     66 O         -83.0833   26.2578  -75.5735 O.2       1 UNK        -0.5079 
     67 H67       -85.8688   27.3041  -70.0371 H         1 UNK         0.0900 
     68 H68       -84.7001   25.9852  -69.9258 H         1 UNK         0.0900 
     69 H69       -84.1490   27.6605  -69.8676 H         1 UNK         0.0900 
     70 H70       -83.2257   28.3289  -71.8005 H         1 UNK         0.2959 
     71 H71       -84.4787   27.9305  -74.3402 H         1 UNK         0.1079 
     72 H72       -83.3706   29.9873  -74.0991 H         1 UNK         0.0837 
     73 H73       -82.3860   29.1133  -75.2248 H         1 UNK         0.0837 
     74 H74       -80.1184   27.8298  -74.4336 H         1 UNK         0.0685 
     75 H75       -79.8260   29.4602  -75.0018 H         1 UNK         0.0685 
     76 H76       -79.1464   27.1570  -72.1352 H         1 UNK         0.1434 
     77 H77       -75.2915   28.8484  -71.3038 H         1 UNK         0.1329 
     78 H78       -77.7891   30.5731  -74.3353 H         1 UNK         0.1335 
     79 H79       -74.8520   31.1163  -72.1657 H         1 UNK         0.0680 
     80 H80       -75.8592   31.8233  -73.4060 H         1 UNK         0.0680 
     81 H81       -72.9128   32.2033  -75.3040 H         1 UNK         0.1032 
     82 H82       -73.4703   32.6257  -73.7204 H         1 UNK         0.1032 
     83 H83       -71.0623   32.4103  -73.7151 H         1 UNK         0.0461 
     84 H84       -70.8589   29.2140  -72.5360 H         1 UNK         0.3453 
     85 H85       -71.2590   29.5885  -70.8769 H         1 UNK         0.3453 
     86 H86       -71.4365   29.9941  -75.2394 H         1 UNK         0.2984 
     87 H87       -69.2715   29.7923  -76.6593 H         1 UNK         0.0554 
     88 H88       -66.9985   30.2929  -75.7957 H         1 UNK         0.0847 
     89 H89       -67.0797   28.6554  -76.4179 H         1 UNK         0.0847 
     90 H90       -67.0970   28.9405  -74.6770 H         1 UNK         0.0847 
     91 H91       -68.9599   27.3798  -75.0837 H         1 UNK         0.3141 
     92 H92       -70.3587   25.5864  -75.9424 H         1 UNK         0.0743 
     93 H93       -72.1046   26.7225  -73.6853 H         1 UNK         0.0784 
     94 H94       -71.7320   25.0107  -73.8798 H         1 UNK         0.0784 
     95 H95       -70.4473   26.1583  -73.5458 H         1 UNK         0.0784 
     96 H96       -73.2589   25.9163  -75.7879 H         1 UNK         0.3213 
     97 H97       -73.8787   25.8933  -79.2003 H         1 UNK         0.0855 
     98 H98       -73.9586   23.2176  -77.7003 H         1 UNK         0.0814 
     99 H99       -73.2157   23.4943  -79.2690 H         1 UNK         0.0814 
    100 H100      -74.9569   23.6417  -79.0909 H         1 UNK         0.0814 
    101 H101      -75.5184   25.0253  -77.0078 H         1 UNK         0.3105 
    102 H102      -76.1626   28.1055  -75.5332 H         1 UNK         0.0547 
    103 H103      -77.6776   28.5243  -77.3884 H         1 UNK         0.0837 
    104 H104      -77.9576   26.8120  -77.6496 H         1 UNK         0.0837 
    105 H105      -78.5919   27.5973  -76.2093 H         1 UNK         0.0837 
    106 H106      -77.5910   25.7275  -75.2005 H         1 UNK         0.3020 
    107 H107      -75.1937   23.8615  -73.2918 H         1 UNK         0.1245 
    108 H108      -77.2679   23.7387  -71.8438 H         1 UNK         0.0781 
    109 H109      -77.7970   25.2500  -72.5133 H         1 UNK         0.0781 
    110 H110      -76.5304   27.3463  -69.6329 H         1 UNK         0.0836 
    111 H111      -77.9266   26.4470  -70.1618 H         1 UNK         0.0836 
    112 H112      -77.8770   23.5793  -74.4731 H         1 UNK         0.3022 
    113 H113      -76.7456   21.5387  -77.1093 H         1 UNK         0.0747 
    114 H114      -78.2494   19.7893  -76.1811 H         1 UNK         0.0793 
    115 H115      -76.7386   19.8274  -75.2885 H         1 UNK         0.0793 
    116 H116      -78.1833   20.5419  -74.5864 H         1 UNK         0.0793 
    117 H117      -79.3619   22.1364  -76.0880 H         1 UNK         0.3047 
    118 H118      -79.7339   25.3170  -77.6035 H         1 UNK         0.0822 
    119 H119      -81.6218   24.2416  -78.7796 H         1 UNK         0.0807 
    120 H120      -80.9555   22.6398  -78.4586 H         1 UNK         0.0807 
    121 H121      -80.1073   23.7552  -79.5207 H         1 UNK         0.0807 
    122 H122      -81.6843   23.8038  -76.3277 H         1 UNK         0.2946 
    123 H123      -82.2601   23.8625  -74.2232 H         1 UNK         0.1144 
    124 H124      -81.6175   23.7577  -71.8556 H         1 UNK         0.0793 
    125 H125      -80.1279   24.6454  -72.1650 H         1 UNK         0.0793 
    126 H126      -80.3424   23.0256  -72.8143 H         1 UNK         0.0793 
    127 H127      -81.9967   26.1714  -72.6230 H         1 UNK         0.2896 
@<TRIPOS>BOND
     1    1    2 1    
     2    1   67 1    
     3    1   68 1    
     4    1   69 1    
     5    2    3 2    
     6    2    4 am   BACKBONE|DICT|INTERRES
     7    4    5 1    
     8    4   70 1    
     9    5    6 1    
    10    5   65 1    
    11    5   71 1    
    12    6    7 1    
    13    6   72 1    
    14    6   73 1    
    15    7    8 1    
    16    8    9 1    
    17    8   74 1    
    18    8   75 1    
    19    9   10 ar   
    20    9   14 ar   
    21   10   11 ar   
    22   10   76 1    
    23   11   12 ar   
    24   11   48 1    
    25   12   13 ar   
    26   12   77 1    
    27   13   14 ar   
    28   13   15 1    
    29   14   78 1    
    30   15   16 1    
    31   15   79 1    
    32   15   80 1    
    33   16   17 1    
    34   17   18 1    
    35   17   81 1    
    36   17   82 1    
    37   18   19 1    
    38   18   22 1    
    39   18   83 1    
    40   19   20 am   BACKBONE|DICT|INTERRES
    41   19   21 2    
    42   20   84 1    
    43   20   85 1    
    44   22   23 am   BACKBONE|DICT|INTERRES
    45   22   86 1    
    46   23   24 2    
    47   23   25 1    
    48   25   26 1    
    49   25   27 1    
    50   25   87 1    
    51   26   88 1    
    52   26   89 1    
    53   26   90 1    
    54   27   28 am   BACKBONE|DICT|INTERRES
    55   27   91 1    
    56   28   29 2    
    57   28   30 1    
    58   30   31 1    
    59   30   32 1    
    60   30   92 1    
    61   31   93 1    
    62   31   94 1    
    63   31   95 1    
    64   32   33 am   BACKBONE|DICT|INTERRES
    65   32   96 1    
    66   33   34 2    
    67   33   35 1    
    68   35   36 1    
    69   35   37 1    
    70   35   97 1    
    71   36   98 1    
    72   36   99 1    
    73   36  100 1    
    74   37   38 am   BACKBONE|DICT|INTERRES
    75   37  101 1    
    76   38   39 2    
    77   38   40 1    
    78   40   41 1    
    79   40   42 1    
    80   40  102 1    
    81   41  103 1    
    82   41  104 1    
    83   41  105 1    
    84   42   43 am   BACKBONE|DICT|INTERRES
    85   42  106 1    
    86   43   44 2    
    87   43   45 1    
    88   45   46 1    
    89   45   49 1    
    90   45  107 1    
    91   46   47 1    
    92   46  108 1    
    93   46  109 1    
    94   47   48 1    
    95   48  110 1    
    96   48  111 1    
    97   49   50 am   BACKBONE|DICT|INTERRES
    98   49  112 1    
    99   50   51 2    
   100   50   52 1    
   101   52   53 1    
   102   52   54 1    
   103   52  113 1    
   104   53  114 1    
   105   53  115 1    
   106   53  116 1    
   107   54   55 am   BACKBONE|DICT|INTERRES
   108   54  117 1    
   109   55   56 2    
   110   55   57 1    
   111   57   58 1    
   112   57   59 1    
   113   57  118 1    
   114   58  119 1    
   115   58  120 1    
   116   58  121 1    
   117   59   60 am   BACKBONE|DICT|INTERRES
   118   59  122 1    
   119   60   61 2    
   120   60   62 1    
   121   62   63 1    
   122   62   64 1    
   123   62  123 1    
   124   63  124 1    
   125   63  125 1    
   126   63  126 1    
   127   64   65 am   BACKBONE|DICT|INTERRES
   128   64  127 1    
   129   65   66 2    
@<TRIPOS>SUBSTRUCTURE
     1 UNK         1 GROUP             0       ****    0 ROOT    
