@<TRIPOS>MOLECULE
3R135
127   129    1
SMALL
USER_CHARGES


@<TRIPOS>ATOM
      1 CA        -83.7214   26.7446  -70.2580 C.3       0 UNK        -0.1998 
      2 C         -82.7111   26.9590  -71.3743 C.2       0 UNK         0.4909 
      3 O         -81.5985   26.4385  -71.2941 O.2       0 UNK        -0.5240 
      4 N         -83.0952   27.7190  -72.4102 N.am      1 UNK        -0.4739 
      5 CA        -82.3228   28.0945  -73.6088 C.3       1 UNK         0.0864 
      6 C6        -81.0046   28.8564  -73.3128 C.3       11 UNK        -0.0881 
      7 S7        -81.2887   30.4263  -72.4211 S.3       11 UNK        -0.2682 
      8 C8        -80.6531   30.0607  -70.7512 C.3       11 UNK         0.0289 
      9 C9        -79.1568   29.7857  -70.7580 C.ar      11 UNK        -0.0687 
     10 C10       -78.6758   28.4886  -70.5607 C.ar      11 UNK        -0.0823 
     11 C11       -77.3047   28.2218  -70.6216 C.ar      11 UNK        -0.0830 
     12 C12       -76.4084   29.2725  -70.8500 C.ar      11 UNK        -0.1021 
     13 C13       -76.8789   30.5767  -71.0306 C.ar      11 UNK        -0.0753 
     14 C14       -78.2529   30.8271  -70.9808 C.ar      11 UNK        -0.0933 
     15 C15       -75.9135   31.7215  -71.2887 C.3       11 UNK         0.0166 
     16 S16       -75.6316   31.9556  -73.0741 S.3       11 UNK        -0.2615 
     17 C17       -73.9239   31.3482  -73.3083 C.3       11 UNK        -0.0865 
     18 CA        -73.8056   30.1129  -74.2534 C.3       10 UNK         0.0862 
     19 C         -73.8425   30.4788  -75.7720 C.2       10 UNK         0.5551 
     20 N         -73.0468   29.8490  -76.6288 N.am      10 UNK        -0.7319 
     21 O         -74.6223   31.3285  -76.1937 O.2       10 UNK        -0.5018 
     22 N         -72.6851   29.2292  -73.8845 N.am      10 UNK        -0.4509 
     23 C         -71.4006   29.6003  -73.7765 C.2       10 UNK         0.4899 
     24 O         -71.0072   30.7625  -73.8789 O.2       10 UNK        -0.4839 
     25 CA        -70.3622   28.4956  -73.5113 C.3       9 UNK         0.0222 
     26 CB        -70.0724   28.3907  -72.0050 C.3       9 UNK        -0.1966 
     27 N         -70.7163   27.1693  -74.0276 N.am      9 UNK        -0.4218 
     28 C         -70.9439   26.8604  -75.3122 C.2       9 UNK         0.5020 
     29 O         -70.9556   27.6941  -76.2208 O.2       9 UNK        -0.5274 
     30 CA        -71.1755   25.3753  -75.6406 C.3       8 UNK         0.0270 
     31 CB        -71.5686   24.5182  -74.4190 C.3       8 UNK        -0.1976 
     32 N         -72.2234   25.2622  -76.6514 N.am      8 UNK        -0.4313 
     33 C         -72.0808   24.7321  -77.8723 C.2       8 UNK         0.5041 
     34 O         -71.0198   24.2665  -78.2932 O.2       8 UNK        -0.5577 
     35 CA        -73.3234   24.6756  -78.7844 C.3       7 UNK         0.0284 
     36 CB        -73.7568   23.2163  -79.0064 C.3       7 UNK        -0.1958 
     37 N         -74.4686   25.4281  -78.2688 N.am      7 UNK        -0.4454 
     38 C         -74.5999   26.7598  -78.3098 C.2       7 UNK         0.5089 
     39 O         -73.8040   27.5096  -78.8743 O.2       7 UNK        -0.5125 
     40 CA        -75.8121   27.3546  -77.5692 C.3       6 UNK         0.0408 
     41 CB        -77.0293   27.4356  -78.5028 C.3       6 UNK        -0.1791 
     42 N         -76.1770   26.6167  -76.3541 N.am      6 UNK        -0.4762 
     43 C         -75.3890   26.4674  -75.2776 C.2       6 UNK         0.5007 
     44 O         -74.2489   26.9213  -75.1887 O.2       6 UNK        -0.5032 
     45 CA        -75.9602   25.6451  -74.1132 C.3       5 UNK         0.0783 
     46 C46       -76.9405   26.5066  -73.2872 C.3       11 UNK        -0.0857 
     47 S47       -77.4762   25.6796  -71.7532 S.3       11 UNK        -0.2512 
     48 C48       -76.7966   26.7920  -70.4744 C.3       11 UNK         0.0225 
     49 N         -76.5633   24.4088  -74.6164 N.am      5 UNK        -0.4615 
     50 C         -75.8541   23.3435  -75.0175 C.2       4 UNK         0.5053 
     51 O         -74.6308   23.2645  -74.9199 O.2       4 UNK        -0.5105 
     52 CA        -76.6235   22.1726  -75.6554 C.3       4 UNK         0.0263 
     53 CB        -77.0055   21.1378  -74.5851 C.3       4 UNK        -0.1981 
     54 N         -77.8275   22.5876  -76.3771 N.am      4 UNK        -0.4224 
     55 C         -77.8457   23.3905  -77.4512 C.2       3 UNK         0.4895 
     56 O         -76.8339   23.8188  -78.0032 O.2       3 UNK        -0.5091 
     57 CA        -79.2278   23.8391  -77.9590 C.3       3 UNK         0.0250 
     58 CB        -79.7232   22.9008  -79.0704 C.3       3 UNK        -0.1996 
     59 N         -80.2385   23.9228  -76.8975 N.am      3 UNK        -0.4254 
     60 C         -80.1581   24.7342  -75.8332 C.2       2 UNK         0.5004 
     61 O         -79.2223   25.5146  -75.6376 O.2       2 UNK        -0.5226 
     62 CA        -81.2576   24.5659  -74.7725 C.3       2 UNK         0.0269 
     63 CB        -80.8422   23.4910  -73.7540 C.3       2 UNK        -0.1926 
     64 N         -81.5426   25.8035  -74.0484 N.am      2 UNK        -0.4687 
     65 C         -82.0829   26.9105  -74.5699 C.2       1 UNK         0.5165 
     66 O         -82.4252   27.0100  -75.7495 O.2       1 UNK        -0.5079 
     67 H67       -83.9371   25.6822  -70.1474 H         1 UNK         0.0900 
     68 H68       -84.6600   27.2639  -70.4502 H         1 UNK         0.0900 
     69 H69       -83.3184   27.1108  -69.3142 H         1 UNK         0.0900 
     70 H70       -84.0359   28.0886  -72.4001 H         1 UNK         0.2959 
     71 H71       -82.9691   28.7841  -74.1550 H         1 UNK         0.1079 
     72 H72       -80.4982   29.1087  -74.2466 H         1 UNK         0.0837 
     73 H73       -80.3058   28.2242  -72.7655 H         1 UNK         0.0837 
     74 H74       -80.8575   30.9140  -70.1030 H         1 UNK         0.0685 
     75 H75       -81.2017   29.2195  -70.3271 H         1 UNK         0.0685 
     76 H76       -79.3707   27.6753  -70.3981 H         1 UNK         0.1434 
     77 H77       -75.3461   29.0766  -70.9043 H         1 UNK         0.1329 
     78 H78       -78.6233   31.8312  -71.1374 H         1 UNK         0.1335 
     79 H79       -74.9788   31.5581  -70.7517 H         1 UNK         0.0680 
     80 H80       -76.3264   32.6464  -70.8829 H         1 UNK         0.0680 
     81 H81       -73.5051   31.1033  -72.3323 H         1 UNK         0.1032 
     82 H82       -73.3128   32.1735  -73.6785 H         1 UNK         0.1032 
     83 H83       -74.6906   29.4957  -74.0939 H         1 UNK         0.0461 
     84 H84       -73.1003   30.0733  -77.6089 H         1 UNK         0.3453 
     85 H85       -72.4115   29.1225  -76.3179 H         1 UNK         0.3453 
     86 H86       -72.9071   28.2424  -73.8680 H         1 UNK         0.2984 
     87 H87       -69.4401   28.7973  -74.0124 H         1 UNK         0.0554 
     88 H88       -69.2573   27.6956  -71.8026 H         1 UNK         0.0847 
     89 H89       -70.9480   28.0561  -71.4472 H         1 UNK         0.0847 
     90 H90       -69.7770   29.3580  -71.5957 H         1 UNK         0.0847 
     91 H91       -70.7388   26.4174  -73.3540 H         1 UNK         0.3141 
     92 H92       -70.2288   24.9957  -76.0293 H         1 UNK         0.0743 
     93 H93       -70.7664   24.4716  -73.6819 H         1 UNK         0.0784 
     94 H94       -72.4637   24.9001  -73.9257 H         1 UNK         0.0784 
     95 H95       -71.7777   23.4905  -74.7178 H         1 UNK         0.0784 
     96 H96       -73.1044   25.7017  -76.4084 H         1 UNK         0.3213 
     97 H97       -73.0370   25.0990  -79.7495 H         1 UNK         0.0855 
     98 H98       -72.9444   22.6239  -79.4293 H         1 UNK         0.0814 
     99 H99       -74.5972   23.1526  -79.6980 H         1 UNK         0.0814 
    100 H100      -74.0565   22.7411  -78.0712 H         1 UNK         0.0814 
    101 H101      -75.2314   24.8825  -77.8750 H         1 UNK         0.3105 
    102 H102      -75.5490   28.3698  -77.2670 H         1 UNK         0.0547 
    103 H103      -76.8051   28.0438  -79.3801 H         1 UNK         0.0837 
    104 H104      -77.3297   26.4504  -78.8600 H         1 UNK         0.0837 
    105 H105      -77.8860   27.8894  -78.0041 H         1 UNK         0.0837 
    106 H106      -77.1016   26.2033  -76.3302 H         1 UNK         0.3020 
    107 H107      -75.1202   25.3800  -73.4663 H         1 UNK         0.1245 
    108 H108      -76.4733   27.4610  -73.0407 H         1 UNK         0.0781 
    109 H109      -77.8311   26.7589  -73.8639 H         1 UNK         0.0781 
    110 H110      -75.7070   26.7580  -70.5200 H         1 UNK         0.0836 
    111 H111      -77.0758   26.4134  -69.4903 H         1 UNK         0.0836 
    112 H112      -77.5649   24.4299  -74.7608 H         1 UNK         0.3022 
    113 H113      -75.9547   21.6945  -76.3744 H         1 UNK         0.0747 
    114 H114      -77.4767   20.2609  -75.0296 H         1 UNK         0.0793 
    115 H115      -76.1224   20.7905  -74.0468 H         1 UNK         0.0793 
    116 H116      -77.6936   21.5537  -73.8477 H         1 UNK         0.0793 
    117 H117      -78.7112   22.2784  -76.0013 H         1 UNK         0.3047 
    118 H118      -79.1115   24.8389  -78.3815 H         1 UNK         0.0822 
    119 H119      -80.6588   23.2562  -79.5028 H         1 UNK         0.0807 
    120 H120      -79.8852   21.8866  -78.7032 H         1 UNK         0.0807 
    121 H121      -78.9963   22.8411  -79.8820 H         1 UNK         0.0807 
    122 H122      -81.0317   23.3026  -76.9815 H         1 UNK         0.2946 
    123 H123      -82.1783   24.2513  -75.2688 H         1 UNK         0.1144 
    124 H124      -81.6211   23.3303  -73.0082 H         1 UNK         0.0793 
    125 H125      -79.9287   23.7701  -73.2259 H         1 UNK         0.0793 
    126 H126      -80.6602   22.5320  -74.2404 H         1 UNK         0.0793 
    127 H127      -81.3109   25.8285  -73.0584 H         1 UNK         0.2896 
@<TRIPOS>BOND
     1    1    2 1    
     2    1   67 1    
     3    1   68 1    
     4    1   69 1    
     5    2    3 2    
     6    2    4 am   BACKBONE|DICT|INTERRES
     7    4    5 1    
     8    4   70 1    
     9    5    6 1    
    10    5   65 1    
    11    5   71 1    
    12    6    7 1    
    13    6   72 1    
    14    6   73 1    
    15    7    8 1    
    16    8    9 1    
    17    8   74 1    
    18    8   75 1    
    19    9   10 ar   
    20    9   14 ar   
    21   10   11 ar   
    22   10   76 1    
    23   11   12 ar   
    24   11   48 1    
    25   12   13 ar   
    26   12   77 1    
    27   13   14 ar   
    28   13   15 1    
    29   14   78 1    
    30   15   16 1    
    31   15   79 1    
    32   15   80 1    
    33   16   17 1    
    34   17   18 1    
    35   17   81 1    
    36   17   82 1    
    37   18   19 1    
    38   18   22 1    
    39   18   83 1    
    40   19   20 am   BACKBONE|DICT|INTERRES
    41   19   21 2    
    42   20   84 1    
    43   20   85 1    
    44   22   23 am   BACKBONE|DICT|INTERRES
    45   22   86 1    
    46   23   24 2    
    47   23   25 1    
    48   25   26 1    
    49   25   27 1    
    50   25   87 1    
    51   26   88 1    
    52   26   89 1    
    53   26   90 1    
    54   27   28 am   BACKBONE|DICT|INTERRES
    55   27   91 1    
    56   28   29 2    
    57   28   30 1    
    58   30   31 1    
    59   30   32 1    
    60   30   92 1    
    61   31   93 1    
    62   31   94 1    
    63   31   95 1    
    64   32   33 am   BACKBONE|DICT|INTERRES
    65   32   96 1    
    66   33   34 2    
    67   33   35 1    
    68   35   36 1    
    69   35   37 1    
    70   35   97 1    
    71   36   98 1    
    72   36   99 1    
    73   36  100 1    
    74   37   38 am   BACKBONE|DICT|INTERRES
    75   37  101 1    
    76   38   39 2    
    77   38   40 1    
    78   40   41 1    
    79   40   42 1    
    80   40  102 1    
    81   41  103 1    
    82   41  104 1    
    83   41  105 1    
    84   42   43 am   BACKBONE|DICT|INTERRES
    85   42  106 1    
    86   43   44 2    
    87   43   45 1    
    88   45   46 1    
    89   45   49 1    
    90   45  107 1    
    91   46   47 1    
    92   46  108 1    
    93   46  109 1    
    94   47   48 1    
    95   48  110 1    
    96   48  111 1    
    97   49   50 am   BACKBONE|DICT|INTERRES
    98   49  112 1    
    99   50   51 2    
   100   50   52 1    
   101   52   53 1    
   102   52   54 1    
   103   52  113 1    
   104   53  114 1    
   105   53  115 1    
   106   53  116 1    
   107   54   55 am   BACKBONE|DICT|INTERRES
   108   54  117 1    
   109   55   56 2    
   110   55   57 1    
   111   57   58 1    
   112   57   59 1    
   113   57  118 1    
   114   58  119 1    
   115   58  120 1    
   116   58  121 1    
   117   59   60 am   BACKBONE|DICT|INTERRES
   118   59  122 1    
   119   60   61 2    
   120   60   62 1    
   121   62   63 1    
   122   62   64 1    
   123   62  123 1    
   124   63  124 1    
   125   63  125 1    
   126   63  126 1    
   127   64   65 am   BACKBONE|DICT|INTERRES
   128   64  127 1    
   129   65   66 2    
@<TRIPOS>SUBSTRUCTURE
     1 UNK         1 GROUP             0       ****    0 ROOT    
