@<TRIPOS>MOLECULE
3R135
127   129    1
SMALL
USER_CHARGES


@<TRIPOS>ATOM
      1 CA        -81.9733   29.3578  -76.5661 C.3       0 UNK        -0.1998 
      2 C         -82.2040   28.7681  -75.1828 C.2       0 UNK         0.4909 
      3 O         -83.3544   28.5697  -74.7914 O.2       0 UNK        -0.5240 
      4 N         -81.1155   28.4891  -74.4514 N.am      1 UNK        -0.4739 
      5 CA        -81.0884   27.9220  -73.0932 C.3       1 UNK         0.0864 
      6 C6        -81.6419   28.8779  -71.9984 C.3       11 UNK        -0.0881 
      7 S7        -80.8643   30.5328  -72.0012 S.3       11 UNK        -0.2682 
      8 C8        -79.5993   30.3854  -70.6974 C.3       11 UNK         0.0289 
      9 C9        -78.3339   29.7213  -71.2191 C.ar      11 UNK        -0.0687 
     10 C10       -78.1226   28.3525  -71.0310 C.ar      11 UNK        -0.0823 
     11 C11       -76.9821   27.7345  -71.5522 C.ar      11 UNK        -0.0830 
     12 C12       -76.0273   28.5027  -72.2253 C.ar      11 UNK        -0.1021 
     13 C13       -76.2162   29.8762  -72.3996 C.ar      11 UNK        -0.0753 
     14 C14       -77.3751   30.4786  -71.9004 C.ar      11 UNK        -0.0933 
     15 C15       -75.1825   30.7024  -73.1524 C.3       11 UNK         0.0166 
     16 S16       -74.2202   31.7762  -72.0417 S.3       11 UNK        -0.2615 
     17 C17       -73.2435   30.5656  -71.0836 C.3       11 UNK        -0.0865 
     18 CA        -71.7220   30.6682  -71.3632 C.3       10 UNK         0.0862 
     19 C         -70.9102   29.8163  -70.3433 C.2       10 UNK         0.5551 
     20 N         -70.1677   28.7989  -70.7640 N.am      10 UNK        -0.7319 
     21 O         -70.9497   30.0913  -69.1466 O.2       10 UNK        -0.5018 
     22 N         -71.4025   30.3829  -72.7725 N.am      10 UNK        -0.4509 
     23 C         -70.3256   30.8384  -73.4206 C.2       10 UNK         0.4899 
     24 O         -69.5087   31.6114  -72.9189 O.2       10 UNK        -0.4839 
     25 CA        -70.0993   30.3697  -74.8720 C.3       9 UNK         0.0222 
     26 CB        -69.1112   29.1870  -74.9123 C.3       9 UNK        -0.1966 
     27 N         -71.3081   30.0729  -75.6589 N.am      9 UNK        -0.4218 
     28 C         -72.2084   29.0925  -75.4944 C.2       9 UNK         0.5020 
     29 O         -72.2052   28.3105  -74.5417 O.2       9 UNK        -0.5274 
     30 CA        -73.3283   28.9723  -76.5460 C.3       8 UNK         0.0270 
     31 CB        -73.3217   30.0736  -77.6317 C.3       8 UNK        -0.1976 
     32 N         -73.3488   27.6376  -77.1522 N.am      8 UNK        -0.4313 
     33 C         -72.3729   27.0444  -77.8604 C.2       8 UNK         0.5041 
     34 O         -71.3030   27.5872  -78.1411 O.2       8 UNK        -0.5577 
     35 CA        -72.6093   25.5963  -78.3410 C.3       7 UNK         0.0284 
     36 CB        -71.7779   24.6130  -77.5001 C.3       7 UNK        -0.1958 
     37 N         -74.0131   25.1784  -78.3054 N.am      7 UNK        -0.4454 
     38 C         -74.9750   25.6313  -79.1213 C.2       7 UNK         0.5089 
     39 O         -74.7610   26.3681  -80.0843 O.2       7 UNK        -0.5125 
     40 CA        -76.4267   25.2229  -78.7938 C.3       6 UNK         0.0408 
     41 CB        -76.8982   24.1116  -79.7445 C.3       6 UNK        -0.1791 
     42 N         -76.6631   24.7978  -77.4060 N.am      6 UNK        -0.4762 
     43 C         -76.4168   25.5239  -76.3025 C.2       6 UNK         0.5007 
     44 O         -75.9049   26.6430  -76.3390 O.2       6 UNK        -0.5032 
     45 CA        -76.7720   24.9154  -74.9297 C.3       5 UNK         0.0783 
     46 C46       -77.6541   25.8927  -74.1165 C.3       11 UNK        -0.0857 
     47 S47       -78.0048   25.3024  -72.4238 S.3       11 UNK        -0.2512 
     48 C48       -76.7963   26.2296  -71.4214 C.3       11 UNK         0.0225 
     49 N         -77.3867   23.5896  -75.0525 N.am      5 UNK        -0.4615 
     50 C         -76.7116   22.4341  -75.1101 C.2       4 UNK         0.5053 
     51 O         -75.4826   22.3677  -75.0991 O.2       4 UNK        -0.5105 
     52 CA        -77.5309   21.1315  -75.1943 C.3       4 UNK         0.0263 
     53 CB        -77.5508   20.4287  -73.8271 C.3       4 UNK        -0.1981 
     54 N         -78.9111   21.3337  -75.6430 N.am      4 UNK        -0.4224 
     55 C         -79.2739   21.6442  -76.8959 C.2       3 UNK         0.4895 
     56 O         -78.4823   21.7368  -77.8338 O.2       3 UNK        -0.5091 
     57 CA        -80.7668   21.9521  -77.1259 C.3       3 UNK         0.0250 
     58 CB        -81.5330   20.6699  -77.4883 C.3       3 UNK        -0.1996 
     59 N         -81.4128   22.6047  -75.9773 N.am      3 UNK        -0.4254 
     60 C         -81.0460   23.7982  -75.4903 C.2       2 UNK         0.5004 
     61 O         -80.1466   24.4838  -75.9860 O.2       2 UNK        -0.5226 
     62 CA        -81.7427   24.2794  -74.2099 C.3       2 UNK         0.0269 
     63 CB        -81.3427   23.3843  -73.0164 C.3       2 UNK        -0.1926 
     64 N         -81.3267   25.6634  -73.9923 N.am      2 UNK        -0.4687 
     65 C         -81.7306   26.5149  -73.0436 C.2       1 UNK         0.5165 
     66 O         -82.5692   26.2359  -72.1841 O.2       1 UNK        -0.5079 
     67 H67       -82.4520   30.3338  -76.6417 H         1 UNK         0.0900 
     68 H68       -82.4027   28.7072  -77.3276 H         1 UNK         0.0900 
     69 H69       -80.9131   29.4829  -76.7859 H         1 UNK         0.0900 
     70 H70       -80.2068   28.6969  -74.8409 H         1 UNK         0.2959 
     71 H71       -80.0346   27.7562  -72.8713 H         1 UNK         0.1079 
     72 H72       -82.7159   29.0187  -72.1323 H         1 UNK         0.0837 
     73 H73       -81.5231   28.4328  -71.0090 H         1 UNK         0.0837 
     74 H74       -79.3576   31.3851  -70.3333 H         1 UNK         0.0685 
     75 H75       -80.0011   29.8426  -69.8406 H         1 UNK         0.0685 
     76 H76       -78.8622   27.7586  -70.5113 H         1 UNK         0.1434 
     77 H77       -75.1444   28.0278  -72.6320 H         1 UNK         0.1329 
     78 H78       -77.5324   31.5385  -72.0469 H         1 UNK         0.1335 
     79 H79       -75.6885   31.3235  -73.8929 H         1 UNK         0.0680 
     80 H80       -74.5001   30.0589  -73.7080 H         1 UNK         0.0680 
     81 H81       -73.5938   29.5515  -71.2777 H         1 UNK         0.1032 
     82 H82       -73.4526   30.7543  -70.0287 H         1 UNK         0.1032 
     83 H83       -71.4341   31.7028  -71.1660 H         1 UNK         0.0461 
     84 H84       -70.1341   28.5643  -71.7429 H         1 UNK         0.3453 
     85 H85       -69.6431   28.2584  -70.0944 H         1 UNK         0.3453 
     86 H86       -71.9708   29.6858  -73.2432 H         1 UNK         0.2984 
     87 H87       -69.6229   31.2055  -75.3870 H         1 UNK         0.0554 
     88 H88       -68.8714   28.9064  -75.9380 H         1 UNK         0.0847 
     89 H89       -69.5087   28.3048  -74.4099 H         1 UNK         0.0847 
     90 H90       -68.1729   29.4448  -74.4192 H         1 UNK         0.0847 
     91 H91       -71.4423   30.6715  -76.4621 H         1 UNK         0.3141 
     92 H92       -74.2667   29.0636  -75.9971 H         1 UNK         0.0743 
     93 H93       -72.4127   30.0587  -78.2342 H         1 UNK         0.0784 
     94 H94       -74.1642   29.9494  -78.3124 H         1 UNK         0.0784 
     95 H95       -73.4175   31.0666  -77.1904 H         1 UNK         0.0784 
     96 H96       -74.1920   27.1040  -76.9526 H         1 UNK         0.3213 
     97 H97       -72.2649   25.5391  -79.3759 H         1 UNK         0.0855 
     98 H98       -72.0816   24.6207  -76.4524 H         1 UNK         0.0814 
     99 H99       -70.7183   24.8708  -77.5330 H         1 UNK         0.0814 
    100 H100      -71.8720   23.5924  -77.8717 H         1 UNK         0.0814 
    101 H101      -74.2882   24.5651  -77.5518 H         1 UNK         0.3105 
    102 H102      -77.0486   26.1031  -78.9677 H         1 UNK         0.0547 
    103 H103      -76.7533   24.3979  -80.7872 H         1 UNK         0.0837 
    104 H104      -76.3513   23.1822  -79.5814 H         1 UNK         0.0837 
    105 H105      -77.9601   23.9019  -79.6139 H         1 UNK         0.0837 
    106 H106      -77.0950   23.8914  -77.2842 H         1 UNK         0.3020 
    107 H107      -75.8245   24.8132  -74.3953 H         1 UNK         0.1245 
    108 H108      -78.6046   26.0551  -74.6221 H         1 UNK         0.0781 
    109 H109      -77.1894   26.8768  -74.0680 H         1 UNK         0.0781 
    110 H110      -75.7881   25.9328  -71.7145 H         1 UNK         0.0836 
    111 H111      -76.9079   25.9420  -70.3750 H         1 UNK         0.0836 
    112 H112      -78.3961   23.5836  -75.1265 H         1 UNK         0.3022 
    113 H113      -77.0303   20.4763  -75.9105 H         1 UNK         0.0747 
    114 H114      -78.0670   19.4699  -73.8801 H         1 UNK         0.0793 
    115 H115      -76.5373   20.2292  -73.4758 H         1 UNK         0.0793 
    116 H116      -78.0445   21.0365  -73.0675 H         1 UNK         0.0793 
    117 H117      -79.6316   21.2707  -74.9390 H         1 UNK         0.3047 
    118 H118      -80.8285   22.6382  -77.9737 H         1 UNK         0.0822 
    119 H119      -82.5702   20.8862  -77.7452 H         1 UNK         0.0807 
    120 H120      -81.5321   19.9509  -76.6681 H         1 UNK         0.0807 
    121 H121      -81.0835   20.1786  -78.3526 H         1 UNK         0.0807 
    122 H122      -82.1595   22.0961  -75.5249 H         1 UNK         0.2946 
    123 H123      -82.8239   24.2539  -74.3599 H         1 UNK         0.1144 
    124 H124      -80.2635   23.3782  -72.8607 H         1 UNK         0.0793 
    125 H125      -81.6544   22.3512  -73.1731 H         1 UNK         0.0793 
    126 H126      -81.8091   23.7115  -72.0878 H         1 UNK         0.0793 
    127 H127      -80.6649   25.9812  -74.6908 H         1 UNK         0.2896 
@<TRIPOS>BOND
     1    1    2 1    
     2    1   67 1    
     3    1   68 1    
     4    1   69 1    
     5    2    3 2    
     6    2    4 am   BACKBONE|DICT|INTERRES
     7    4    5 1    
     8    4   70 1    
     9    5    6 1    
    10    5   65 1    
    11    5   71 1    
    12    6    7 1    
    13    6   72 1    
    14    6   73 1    
    15    7    8 1    
    16    8    9 1    
    17    8   74 1    
    18    8   75 1    
    19    9   10 ar   
    20    9   14 ar   
    21   10   11 ar   
    22   10   76 1    
    23   11   12 ar   
    24   11   48 1    
    25   12   13 ar   
    26   12   77 1    
    27   13   14 ar   
    28   13   15 1    
    29   14   78 1    
    30   15   16 1    
    31   15   79 1    
    32   15   80 1    
    33   16   17 1    
    34   17   18 1    
    35   17   81 1    
    36   17   82 1    
    37   18   19 1    
    38   18   22 1    
    39   18   83 1    
    40   19   20 am   BACKBONE|DICT|INTERRES
    41   19   21 2    
    42   20   84 1    
    43   20   85 1    
    44   22   23 am   BACKBONE|DICT|INTERRES
    45   22   86 1    
    46   23   24 2    
    47   23   25 1    
    48   25   26 1    
    49   25   27 1    
    50   25   87 1    
    51   26   88 1    
    52   26   89 1    
    53   26   90 1    
    54   27   28 am   BACKBONE|DICT|INTERRES
    55   27   91 1    
    56   28   29 2    
    57   28   30 1    
    58   30   31 1    
    59   30   32 1    
    60   30   92 1    
    61   31   93 1    
    62   31   94 1    
    63   31   95 1    
    64   32   33 am   BACKBONE|DICT|INTERRES
    65   32   96 1    
    66   33   34 2    
    67   33   35 1    
    68   35   36 1    
    69   35   37 1    
    70   35   97 1    
    71   36   98 1    
    72   36   99 1    
    73   36  100 1    
    74   37   38 am   BACKBONE|DICT|INTERRES
    75   37  101 1    
    76   38   39 2    
    77   38   40 1    
    78   40   41 1    
    79   40   42 1    
    80   40  102 1    
    81   41  103 1    
    82   41  104 1    
    83   41  105 1    
    84   42   43 am   BACKBONE|DICT|INTERRES
    85   42  106 1    
    86   43   44 2    
    87   43   45 1    
    88   45   46 1    
    89   45   49 1    
    90   45  107 1    
    91   46   47 1    
    92   46  108 1    
    93   46  109 1    
    94   47   48 1    
    95   48  110 1    
    96   48  111 1    
    97   49   50 am   BACKBONE|DICT|INTERRES
    98   49  112 1    
    99   50   51 2    
   100   50   52 1    
   101   52   53 1    
   102   52   54 1    
   103   52  113 1    
   104   53  114 1    
   105   53  115 1    
   106   53  116 1    
   107   54   55 am   BACKBONE|DICT|INTERRES
   108   54  117 1    
   109   55   56 2    
   110   55   57 1    
   111   57   58 1    
   112   57   59 1    
   113   57  118 1    
   114   58  119 1    
   115   58  120 1    
   116   58  121 1    
   117   59   60 am   BACKBONE|DICT|INTERRES
   118   59  122 1    
   119   60   61 2    
   120   60   62 1    
   121   62   63 1    
   122   62   64 1    
   123   62  123 1    
   124   63  124 1    
   125   63  125 1    
   126   63  126 1    
   127   64   65 am   BACKBONE|DICT|INTERRES
   128   64  127 1    
   129   65   66 2    
@<TRIPOS>SUBSTRUCTURE
     1 UNK         1 GROUP             0       ****    0 ROOT    
