@<TRIPOS>MOLECULE
3R135
127   129    1
SMALL
USER_CHARGES


@<TRIPOS>ATOM
      1 CA        -81.2035   31.2700  -76.0430 C.3       0 UNK        -0.1998 
      2 C         -80.8390   29.9790  -75.3259 C.2       0 UNK         0.4909 
      3 O         -80.0131   29.2148  -75.8249 O.2       0 UNK        -0.5240 
      4 N         -81.4417   29.7362  -74.1555 N.am      1 UNK        -0.4739 
      5 CA        -81.2240   28.5398  -73.3358 C.3       1 UNK         0.0864 
      6 C6        -81.7500   28.7101  -71.8863 C.3       11 UNK        -0.0881 
      7 S7        -81.1635   30.2425  -71.0807 S.3       11 UNK        -0.2682 
      8 C8        -79.7949   29.6442  -70.0323 C.3       11 UNK         0.0289 
      9 C9        -78.6116   29.0785  -70.8134 C.ar      11 UNK        -0.0687 
     10 C10       -77.9673   27.9270  -70.3478 C.ar      11 UNK        -0.0823 
     11 C11       -76.8732   27.3953  -71.0363 C.ar      11 UNK        -0.0830 
     12 C12       -76.4299   28.0189  -72.2038 C.ar      11 UNK        -0.1021 
     13 C13       -77.0434   29.1830  -72.6693 C.ar      11 UNK        -0.0753 
     14 C14       -78.1311   29.7110  -71.9678 C.ar      11 UNK        -0.0933 
     15 C15       -76.5342   29.8501  -73.9398 C.3       11 UNK         0.0166 
     16 S16       -75.9755   31.5661  -73.6915 S.3       11 UNK        -0.2615 
     17 C17       -74.6950   31.4332  -72.3868 C.3       11 UNK        -0.0865 
     18 CA        -73.3187   30.8361  -72.8130 C.3       10 UNK         0.0862 
     19 C         -73.1918   29.3271  -72.4446 C.2       10 UNK         0.5551 
     20 N         -73.0442   28.4096  -73.3926 N.am      10 UNK        -0.7319 
     21 O         -73.2108   28.9861  -71.2648 O.2       10 UNK        -0.5018 
     22 N         -72.9575   31.1760  -74.1983 N.am      10 UNK        -0.4509 
     23 C         -71.7212   31.1263  -74.7048 C.2       10 UNK         0.4899 
     24 O         -70.7030   30.9340  -74.0373 O.2       10 UNK        -0.4839 
     25 CA        -71.6090   31.2720  -76.2335 C.3       9 UNK         0.0222 
     26 CB        -70.6995   32.4526  -76.6133 C.3       9 UNK        -0.1966 
     27 N         -71.0980   30.0400  -76.8445 N.am      9 UNK        -0.4218 
     28 C         -71.6955   28.8440  -76.7539 C.2       9 UNK         0.5020 
     29 O         -72.7958   28.6704  -76.2155 O.2       9 UNK        -0.5274 
     30 CA        -70.9397   27.6368  -77.3322 C.3       8 UNK         0.0270 
     31 CB        -69.5541   27.4518  -76.6834 C.3       8 UNK        -0.1976 
     32 N         -71.7644   26.4662  -77.0697 N.am      8 UNK        -0.4313 
     33 C         -71.8145   25.3163  -77.7457 C.2       8 UNK         0.5041 
     34 O         -71.0628   25.0341  -78.6799 O.2       8 UNK        -0.5577 
     35 CA        -72.8964   24.3097  -77.3022 C.3       7 UNK         0.0284 
     36 CB        -72.2667   23.1426  -76.5246 C.3       7 UNK        -0.1958 
     37 N         -73.9413   24.9221  -76.4727 N.am      7 UNK        -0.4454 
     38 C         -74.8996   25.7425  -76.9219 C.2       7 UNK         0.5089 
     39 O         -75.0593   26.0089  -78.1143 O.2       7 UNK        -0.5125 
     40 CA        -75.8052   26.3858  -75.8530 C.3       6 UNK         0.0408 
     41 CB        -76.9422   27.2200  -76.4703 C.3       6 UNK        -0.1791 
     42 N         -76.3977   25.3999  -74.9511 N.am      6 UNK        -0.4762 
     43 C         -75.7992   24.7805  -73.9253 C.2       6 UNK         0.5007 
     44 O         -74.6158   24.9460  -73.6263 O.2       6 UNK        -0.5032 
     45 CA        -76.6722   23.7863  -73.1379 C.3       5 UNK         0.0783 
     46 C46       -77.7029   24.5184  -72.2345 C.3       11 UNK        -0.0857 
     47 S47       -77.1704   24.6636  -70.4983 S.3       11 UNK        -0.2512 
     48 C48       -76.1418   26.1675  -70.5103 C.3       11 UNK         0.0225 
     49 N         -77.3424   22.8857  -74.0756 N.am      5 UNK        -0.4615 
     50 C         -76.8285   21.7488  -74.5599 C.2       4 UNK         0.5053 
     51 O         -75.7353   21.2942  -74.2232 O.2       4 UNK        -0.5105 
     52 CA        -77.6824   20.9763  -75.5835 C.3       4 UNK         0.0263 
     53 CB        -78.4572   19.8454  -74.8876 C.3       4 UNK        -0.1981 
     54 N         -78.6290   21.8324  -76.3052 N.am      4 UNK        -0.4224 
     55 C         -78.2825   22.6976  -77.2686 C.2       3 UNK         0.4895 
     56 O         -77.1388   22.8080  -77.7096 O.2       3 UNK        -0.5091 
     57 CA        -79.3931   23.6121  -77.8201 C.3       3 UNK         0.0250 
     58 CB        -80.0430   22.9765  -79.0598 C.3       3 UNK        -0.1996 
     59 N         -80.4406   23.9733  -76.8525 N.am      3 UNK        -0.4254 
     60 C         -80.2264   24.6222  -75.7001 C.2       2 UNK         0.5004 
     61 O         -79.1050   24.8846  -75.2615 O.2       2 UNK        -0.5226 
     62 CA        -81.4514   25.0159  -74.8715 C.3       2 UNK         0.0269 
     63 CB        -81.8264   23.8944  -73.8887 C.3       2 UNK        -0.1926 
     64 N         -81.1007   26.2206  -74.1228 N.am      2 UNK        -0.4687 
     65 C         -81.8643   27.3107  -74.0118 C.2       1 UNK         0.5165 
     66 O         -83.0292   27.3753  -74.4139 O.2       1 UNK        -0.5079 
     67 H67       -80.3148   31.8857  -76.1793 H         1 UNK         0.0900 
     68 H68       -81.6195   31.0485  -77.0254 H         1 UNK         0.0900 
     69 H69       -81.9376   31.8524  -75.4864 H         1 UNK         0.0900 
     70 H70       -82.1182   30.3922  -73.7926 H         1 UNK         0.2959 
     71 H71       -80.1465   28.3724  -73.2852 H         1 UNK         0.1079 
     72 H72       -81.4664   27.8506  -71.2757 H         1 UNK         0.0837 
     73 H73       -82.8416   28.7376  -71.8782 H         1 UNK         0.0837 
     74 H74       -79.4375   30.4750  -69.4228 H         1 UNK         0.0685 
     75 H75       -80.1906   28.9011  -69.3380 H         1 UNK         0.0685 
     76 H76       -78.3116   27.4421  -69.4443 H         1 UNK         0.1434 
     77 H77       -75.5914   27.6029  -72.7439 H         1 UNK         0.1329 
     78 H78       -78.6069   30.6124  -72.3287 H         1 UNK         0.1335 
     79 H79       -75.7162   29.2794  -74.3810 H         1 UNK         0.0680 
     80 H80       -77.3374   29.8532  -74.6778 H         1 UNK         0.0680 
     81 H81       -74.5252   32.4517  -72.0348 H         1 UNK         0.1032 
     82 H82       -75.1146   30.9150  -71.5217 H         1 UNK         0.1032 
     83 H83       -72.5723   31.3228  -72.1816 H         1 UNK         0.0461 
     84 H84       -73.0091   28.6696  -74.3743 H         1 UNK         0.3453 
     85 H85       -72.9537   27.4430  -73.1253 H         1 UNK         0.3453 
     86 H86       -73.7402   31.3191  -74.8207 H         1 UNK         0.2984 
     87 H87       -72.6015   31.4624  -76.6477 H         1 UNK         0.0554 
     88 H88       -70.6630   32.5960  -77.6934 H         1 UNK         0.0847 
     89 H89       -69.6782   32.3087  -76.2582 H         1 UNK         0.0847 
     90 H90       -71.0670   33.3823  -76.1768 H         1 UNK         0.0847 
     91 H91       -70.1890   30.0957  -77.2804 H         1 UNK         0.3141 
     92 H92       -70.8369   27.7756  -78.4102 H         1 UNK         0.0743 
     93 H93       -69.6268   27.3739  -75.5976 H         1 UNK         0.0784 
     94 H94       -69.0629   26.5499  -77.0493 H         1 UNK         0.0784 
     95 H95       -68.8923   28.2884  -76.9090 H         1 UNK         0.0784 
     96 H96       -72.4801   26.6436  -76.3751 H         1 UNK         0.3213 
     97 H97       -73.3639   23.9108  -78.2052 H         1 UNK         0.0855 
     98 H98       -71.7858   23.4823  -75.6064 H         1 UNK         0.0814 
     99 H99       -71.5071   22.6390  -77.1242 H         1 UNK         0.0814 
    100 H100      -73.0145   22.3958  -76.2561 H         1 UNK         0.0814 
    101 H101      -73.9007   24.7597  -75.4707 H         1 UNK         0.3105 
    102 H102      -75.1782   27.0578  -75.2641 H         1 UNK         0.0547 
    103 H103      -76.5460   28.0457  -77.0625 H         1 UNK         0.0837 
    104 H104      -77.5725   26.6172  -77.1251 H         1 UNK         0.0837 
    105 H105      -77.5853   27.6492  -75.7021 H         1 UNK         0.0837 
    106 H106      -77.3784   25.1821  -75.1271 H         1 UNK         0.3020 
    107 H107      -76.0059   23.1905  -72.5092 H         1 UNK         0.1245 
    108 H108      -78.6335   23.9497  -72.1986 H         1 UNK         0.0781 
    109 H109      -77.9955   25.4933  -72.6286 H         1 UNK         0.0781 
    110 H110      -75.2382   25.9745  -71.0906 H         1 UNK         0.0836 
    111 H111      -75.8049   26.3684  -69.4925 H         1 UNK         0.0836 
    112 H112      -78.2092   23.2315  -74.4680 H         1 UNK         0.3022 
    113 H113      -76.9999   20.5272  -76.3085 H         1 UNK         0.0747 
    114 H114      -79.0139   19.2444  -75.6068 H         1 UNK         0.0793 
    115 H115      -77.7771   19.1723  -74.3635 H         1 UNK         0.0793 
    116 H116      -79.1640   20.2316  -74.1520 H         1 UNK         0.0793 
    117 H117      -79.5962   21.7946  -76.0180 H         1 UNK         0.3047 
    118 H118      -78.9098   24.5411  -78.1304 H         1 UNK         0.0822 
    119 H119      -80.7464   23.6605  -79.5352 H         1 UNK         0.0807 
    120 H120      -80.5798   22.0604  -78.8102 H         1 UNK         0.0807 
    121 H121      -79.2906   22.7198  -79.8072 H         1 UNK         0.0807 
    122 H122      -81.3917   23.7719  -77.1275 H         1 UNK         0.2946 
    123 H123      -82.2862   25.2119  -75.5488 H         1 UNK         0.1144 
    124 H124      -82.0924   22.9792  -74.4191 H         1 UNK         0.0793 
    125 H125      -82.6856   24.1761  -73.2798 H         1 UNK         0.0793 
    126 H126      -81.0038   23.6554  -73.2134 H         1 UNK         0.0793 
    127 H127      -80.1284   26.2623  -73.8455 H         1 UNK         0.2896 
@<TRIPOS>BOND
     1    1    2 1    
     2    1   67 1    
     3    1   68 1    
     4    1   69 1    
     5    2    3 2    
     6    2    4 am   BACKBONE|DICT|INTERRES
     7    4    5 1    
     8    4   70 1    
     9    5    6 1    
    10    5   65 1    
    11    5   71 1    
    12    6    7 1    
    13    6   72 1    
    14    6   73 1    
    15    7    8 1    
    16    8    9 1    
    17    8   74 1    
    18    8   75 1    
    19    9   10 ar   
    20    9   14 ar   
    21   10   11 ar   
    22   10   76 1    
    23   11   12 ar   
    24   11   48 1    
    25   12   13 ar   
    26   12   77 1    
    27   13   14 ar   
    28   13   15 1    
    29   14   78 1    
    30   15   16 1    
    31   15   79 1    
    32   15   80 1    
    33   16   17 1    
    34   17   18 1    
    35   17   81 1    
    36   17   82 1    
    37   18   19 1    
    38   18   22 1    
    39   18   83 1    
    40   19   20 am   BACKBONE|DICT|INTERRES
    41   19   21 2    
    42   20   84 1    
    43   20   85 1    
    44   22   23 am   BACKBONE|DICT|INTERRES
    45   22   86 1    
    46   23   24 2    
    47   23   25 1    
    48   25   26 1    
    49   25   27 1    
    50   25   87 1    
    51   26   88 1    
    52   26   89 1    
    53   26   90 1    
    54   27   28 am   BACKBONE|DICT|INTERRES
    55   27   91 1    
    56   28   29 2    
    57   28   30 1    
    58   30   31 1    
    59   30   32 1    
    60   30   92 1    
    61   31   93 1    
    62   31   94 1    
    63   31   95 1    
    64   32   33 am   BACKBONE|DICT|INTERRES
    65   32   96 1    
    66   33   34 2    
    67   33   35 1    
    68   35   36 1    
    69   35   37 1    
    70   35   97 1    
    71   36   98 1    
    72   36   99 1    
    73   36  100 1    
    74   37   38 am   BACKBONE|DICT|INTERRES
    75   37  101 1    
    76   38   39 2    
    77   38   40 1    
    78   40   41 1    
    79   40   42 1    
    80   40  102 1    
    81   41  103 1    
    82   41  104 1    
    83   41  105 1    
    84   42   43 am   BACKBONE|DICT|INTERRES
    85   42  106 1    
    86   43   44 2    
    87   43   45 1    
    88   45   46 1    
    89   45   49 1    
    90   45  107 1    
    91   46   47 1    
    92   46  108 1    
    93   46  109 1    
    94   47   48 1    
    95   48  110 1    
    96   48  111 1    
    97   49   50 am   BACKBONE|DICT|INTERRES
    98   49  112 1    
    99   50   51 2    
   100   50   52 1    
   101   52   53 1    
   102   52   54 1    
   103   52  113 1    
   104   53  114 1    
   105   53  115 1    
   106   53  116 1    
   107   54   55 am   BACKBONE|DICT|INTERRES
   108   54  117 1    
   109   55   56 2    
   110   55   57 1    
   111   57   58 1    
   112   57   59 1    
   113   57  118 1    
   114   58  119 1    
   115   58  120 1    
   116   58  121 1    
   117   59   60 am   BACKBONE|DICT|INTERRES
   118   59  122 1    
   119   60   61 2    
   120   60   62 1    
   121   62   63 1    
   122   62   64 1    
   123   62  123 1    
   124   63  124 1    
   125   63  125 1    
   126   63  126 1    
   127   64   65 am   BACKBONE|DICT|INTERRES
   128   64  127 1    
   129   65   66 2    
@<TRIPOS>SUBSTRUCTURE
     1 UNK         1 GROUP             0       ****    0 ROOT    
