@<TRIPOS>MOLECULE
3R135
127   129    1
SMALL
USER_CHARGES


@<TRIPOS>ATOM
      1 CA        -80.0987   30.3123  -77.5995 C.3       0 UNK        -0.1998 
      2 C         -79.9895   29.8824  -76.1445 C.2       0 UNK         0.4909 
      3 O         -79.1858   30.4417  -75.4011 O.2       0 UNK        -0.5240 
      4 N         -80.7894   28.8930  -75.7379 N.am      1 UNK        -0.4739 
      5 CA        -80.8015   28.2882  -74.4081 C.3       1 UNK         0.0864 
      6 C6        -81.5675   29.1700  -73.3878 C.3       11 UNK        -0.0881 
      7 S7        -81.4958   28.5641  -71.6667 S.3       11 UNK        -0.2682 
      8 C8        -80.1229   29.5374  -70.9749 C.3       11 UNK         0.0289 
      9 C9        -78.7700   28.9601  -71.3627 C.ar      11 UNK        -0.0687 
     10 C10       -78.2701   27.8415  -70.6899 C.ar      11 UNK        -0.0823 
     11 C11       -77.0144   27.3163  -71.0100 C.ar      11 UNK        -0.0830 
     12 C12       -76.2564   27.9287  -72.0149 C.ar      11 UNK        -0.1021 
     13 C13       -76.7481   29.0419  -72.7020 C.ar      11 UNK        -0.0753 
     14 C14       -78.0056   29.5540  -72.3705 C.ar      11 UNK        -0.0933 
     15 C15       -75.9217   29.6936  -73.8017 C.3       11 UNK         0.0166 
     16 S16       -75.1622   31.2516  -73.2399 S.3       11 UNK        -0.2615 
     17 C17       -73.9286   30.6514  -72.0340 C.3       11 UNK        -0.0865 
     18 CA        -72.5118   31.2329  -72.2735 C.3       10 UNK         0.0862 
     19 C         -71.5475   30.7485  -71.1550 C.2       10 UNK         0.5551 
     20 N         -71.3635   31.5409  -70.1081 N.am      10 UNK        -0.7319 
     21 O         -71.0080   29.6447  -71.2083 O.2       10 UNK        -0.5018 
     22 N         -72.0288   30.9173  -73.6254 N.am      10 UNK        -0.4509 
     23 C         -70.8618   31.2911  -74.1620 C.2       10 UNK         0.4899 
     24 O         -70.0571   32.0377  -73.6019 O.2       10 UNK        -0.4839 
     25 CA        -70.5432   30.7203  -75.5604 C.3       9 UNK         0.0222 
     26 CB        -69.1443   31.1252  -76.0633 C.3       9 UNK        -0.1966 
     27 N         -70.6555   29.2574  -75.5907 N.am      9 UNK        -0.4218 
     28 C         -71.8033   28.5746  -75.6826 C.2       9 UNK         0.5020 
     29 O         -72.9101   29.1122  -75.7644 O.2       9 UNK        -0.5274 
     30 CA        -71.7000   27.0460  -75.5892 C.3       8 UNK         0.0270 
     31 CB        -71.8104   26.5975  -74.1219 C.3       8 UNK        -0.1976 
     32 N         -72.7582   26.4087  -76.3737 N.am      8 UNK        -0.4313 
     33 C         -72.7121   26.2519  -77.7053 C.2       8 UNK         0.5041 
     34 O         -71.7353   26.5642  -78.3891 O.2       8 UNK        -0.5577 
     35 CA        -73.9339   25.6297  -78.4096 C.3       7 UNK         0.0284 
     36 CB        -73.6551   24.1612  -78.7693 C.3       7 UNK        -0.1958 
     37 N         -75.1632   25.7032  -77.6196 N.am      7 UNK        -0.4454 
     38 C         -75.8799   26.8206  -77.4290 C.2       7 UNK         0.5089 
     39 O         -75.6330   27.8900  -77.9864 O.2       7 UNK        -0.5125 
     40 CA        -77.0803   26.7409  -76.4626 C.3       6 UNK         0.0408 
     41 CB        -78.3847   26.6703  -77.2720 C.3       6 UNK        -0.1791 
     42 N         -77.0476   25.6185  -75.5144 N.am      6 UNK        -0.4762 
     43 C         -76.0596   25.3520  -74.6441 C.2       6 UNK         0.5007 
     44 O         -75.0449   26.0402  -74.5445 O.2       6 UNK        -0.5032 
     45 CA        -76.1784   24.0615  -73.8045 C.3       5 UNK         0.0783 
     46 C46       -76.7854   24.3256  -72.4041 C.3       11 UNK        -0.0857 
     47 S47       -75.5304   24.9210  -71.2231 S.3       11 UNK        -0.2512 
     48 C48       -76.4856   26.1155  -70.2279 C.3       11 UNK         0.0225 
     49 N         -76.8906   22.9866  -74.5037 N.am      5 UNK        -0.4615 
     50 C         -76.4558   22.3665  -75.6108 C.2       4 UNK         0.5053 
     51 O         -75.4137   22.6567  -76.1966 O.2       4 UNK        -0.5105 
     52 CA        -77.3683   21.2729  -76.1749 C.3       4 UNK         0.0263 
     53 CB        -77.3486   20.0211  -75.2740 C.3       4 UNK        -0.1981 
     54 N         -78.7104   21.8305  -76.3077 N.am      4 UNK        -0.4224 
     55 C         -79.7913   21.2844  -76.8655 C.2       3 UNK         0.4895 
     56 O         -79.8228   20.1417  -77.3255 O.2       3 UNK        -0.5091 
     57 CA        -81.0442   22.1897  -76.9335 C.3       3 UNK         0.0250 
     58 CB        -82.2898   21.4326  -77.4329 C.3       3 UNK        -0.1996 
     59 N         -81.3840   22.8757  -75.6760 N.am      3 UNK        -0.4254 
     60 C         -80.7025   23.8765  -75.1006 C.2       2 UNK         0.5004 
     61 O         -79.6033   24.2759  -75.4966 O.2       2 UNK        -0.5226 
     62 CA        -81.3239   24.5122  -73.8461 C.3       2 UNK         0.0269 
     63 CB        -80.8484   23.7790  -72.5819 C.3       2 UNK        -0.1926 
     64 N         -80.9667   25.9297  -73.7396 N.am      2 UNK        -0.4687 
     65 C         -81.4057   26.8822  -74.5728 C.2       1 UNK         0.5165 
     66 O         -82.2466   26.6836  -75.4560 O.2       1 UNK        -0.5079 
     67 H67       -80.3965   31.3587  -77.6596 H         1 UNK         0.0900 
     68 H68       -79.1343   30.2030  -78.0950 H         1 UNK         0.0900 
     69 H69       -80.8306   29.7184  -78.1468 H         1 UNK         0.0900 
     70 H70       -81.4272   28.4425  -76.3842 H         1 UNK         0.2959 
     71 H71       -79.7656   28.1702  -74.0831 H         1 UNK         0.1079 
     72 H72       -82.6173   29.2522  -73.6754 H         1 UNK         0.0837 
     73 H73       -81.1789   30.1890  -73.4123 H         1 UNK         0.0837 
     74 H74       -80.2078   30.5801  -71.2849 H         1 UNK         0.0685 
     75 H75       -80.2122   29.5397  -69.8875 H         1 UNK         0.0685 
     76 H76       -78.8613   27.3869  -69.9062 H         1 UNK         0.1434 
     77 H77       -75.2807   27.5372  -72.2677 H         1 UNK         0.1329 
     78 H78       -78.3835   30.4207  -72.8954 H         1 UNK         0.1335 
     79 H79       -75.1480   29.0134  -74.1624 H         1 UNK         0.0680 
     80 H80       -76.5631   29.9037  -74.6586 H         1 UNK         0.0680 
     81 H81       -74.2882   30.9158  -71.0377 H         1 UNK         0.1032 
     82 H82       -73.8892   29.5612  -72.0587 H         1 UNK         0.1032 
     83 H83       -72.5778   32.3211  -72.2146 H         1 UNK         0.0461 
     84 H84       -71.8099   32.4433  -70.0518 H         1 UNK         0.3453 
     85 H85       -70.7548   31.2367  -69.3642 H         1 UNK         0.3453 
     86 H86       -72.6235   30.3121  -74.1821 H         1 UNK         0.2984 
     87 H87       -71.2751   31.1430  -76.2521 H         1 UNK         0.0554 
     88 H88       -69.0428   32.2105  -76.1051 H         1 UNK         0.0847 
     89 H89       -68.9587   30.7475  -77.0689 H         1 UNK         0.0847 
     90 H90       -68.3548   30.7489  -75.4115 H         1 UNK         0.0847 
     91 H91       -69.7951   28.7410  -75.4736 H         1 UNK         0.3141 
     92 H92       -70.7305   26.7265  -75.9777 H         1 UNK         0.0743 
     93 H93       -72.7308   26.9543  -73.6575 H         1 UNK         0.0784 
     94 H94       -71.7904   25.5112  -74.0338 H         1 UNK         0.0784 
     95 H95       -70.9811   26.9876  -73.5303 H         1 UNK         0.0784 
     96 H96       -73.6221   26.2078  -75.8768 H         1 UNK         0.3213 
     97 H97       -74.0908   26.1827  -79.3384 H         1 UNK         0.0855 
     98 H98       -73.4617   23.5584  -77.8811 H         1 UNK         0.0814 
     99 H99       -72.7799   24.0777  -79.4151 H         1 UNK         0.0814 
    100 H100      -74.4945   23.7144  -79.3025 H         1 UNK         0.0814 
    101 H101      -75.4341   24.8657  -77.1199 H         1 UNK         0.3105 
    102 H102      -77.0880   27.6610  -75.8751 H         1 UNK         0.0547 
    103 H103      -78.4670   27.5116  -77.9611 H         1 UNK         0.0837 
    104 H104      -78.4417   25.7555  -77.8632 H         1 UNK         0.0837 
    105 H105      -79.2576   26.6984  -76.6233 H         1 UNK         0.0837 
    106 H106      -77.8690   25.0183  -75.5120 H         1 UNK         0.3020 
    107 H107      -75.1575   23.6956  -73.6685 H         1 UNK         0.1245 
    108 H108      -77.1887   23.4035  -71.9825 H         1 UNK         0.0781 
    109 H109      -77.6253   25.0204  -72.4616 H         1 UNK         0.0781 
    110 H110      -75.8479   26.4838  -69.4233 H         1 UNK         0.0836 
    111 H111      -77.3066   25.5799  -69.7485 H         1 UNK         0.0836 
    112 H112      -77.7590   22.6827  -74.0898 H         1 UNK         0.3022 
    113 H113      -77.0059   21.0048  -77.1693 H         1 UNK         0.0747 
    114 H114      -77.8924   19.1926  -75.7273 H         1 UNK         0.0793 
    115 H115      -76.3268   19.6771  -75.1078 H         1 UNK         0.0793 
    116 H116      -77.7923   20.2150  -74.2970 H         1 UNK         0.0793 
    117 H117      -78.8188   22.7973  -76.0005 H         1 UNK         0.3047 
    118 H118      -80.8167   22.9617  -77.6719 H         1 UNK         0.0822 
    119 H119      -83.1423   22.1020  -77.5502 H         1 UNK         0.0807 
    120 H120      -82.5786   20.6359  -76.7462 H         1 UNK         0.0807 
    121 H121      -82.1087   20.9750  -78.4065 H         1 UNK         0.0807 
    122 H122      -82.2473   22.5805  -75.2426 H         1 UNK         0.2946 
    123 H123      -82.4117   24.4374  -73.9145 H         1 UNK         0.1144 
    124 H124      -81.2941   24.2080  -71.6841 H         1 UNK         0.0793 
    125 H125      -79.7652   23.8224  -72.4710 H         1 UNK         0.0793 
    126 H126      -81.1307   22.7257  -72.6095 H         1 UNK         0.0793 
    127 H127      -80.2839   26.1744  -73.0374 H         1 UNK         0.2896 
@<TRIPOS>BOND
     1    1    2 1    
     2    1   67 1    
     3    1   68 1    
     4    1   69 1    
     5    2    3 2    
     6    2    4 am   BACKBONE|DICT|INTERRES
     7    4    5 1    
     8    4   70 1    
     9    5    6 1    
    10    5   65 1    
    11    5   71 1    
    12    6    7 1    
    13    6   72 1    
    14    6   73 1    
    15    7    8 1    
    16    8    9 1    
    17    8   74 1    
    18    8   75 1    
    19    9   10 ar   
    20    9   14 ar   
    21   10   11 ar   
    22   10   76 1    
    23   11   12 ar   
    24   11   48 1    
    25   12   13 ar   
    26   12   77 1    
    27   13   14 ar   
    28   13   15 1    
    29   14   78 1    
    30   15   16 1    
    31   15   79 1    
    32   15   80 1    
    33   16   17 1    
    34   17   18 1    
    35   17   81 1    
    36   17   82 1    
    37   18   19 1    
    38   18   22 1    
    39   18   83 1    
    40   19   20 am   BACKBONE|DICT|INTERRES
    41   19   21 2    
    42   20   84 1    
    43   20   85 1    
    44   22   23 am   BACKBONE|DICT|INTERRES
    45   22   86 1    
    46   23   24 2    
    47   23   25 1    
    48   25   26 1    
    49   25   27 1    
    50   25   87 1    
    51   26   88 1    
    52   26   89 1    
    53   26   90 1    
    54   27   28 am   BACKBONE|DICT|INTERRES
    55   27   91 1    
    56   28   29 2    
    57   28   30 1    
    58   30   31 1    
    59   30   32 1    
    60   30   92 1    
    61   31   93 1    
    62   31   94 1    
    63   31   95 1    
    64   32   33 am   BACKBONE|DICT|INTERRES
    65   32   96 1    
    66   33   34 2    
    67   33   35 1    
    68   35   36 1    
    69   35   37 1    
    70   35   97 1    
    71   36   98 1    
    72   36   99 1    
    73   36  100 1    
    74   37   38 am   BACKBONE|DICT|INTERRES
    75   37  101 1    
    76   38   39 2    
    77   38   40 1    
    78   40   41 1    
    79   40   42 1    
    80   40  102 1    
    81   41  103 1    
    82   41  104 1    
    83   41  105 1    
    84   42   43 am   BACKBONE|DICT|INTERRES
    85   42  106 1    
    86   43   44 2    
    87   43   45 1    
    88   45   46 1    
    89   45   49 1    
    90   45  107 1    
    91   46   47 1    
    92   46  108 1    
    93   46  109 1    
    94   47   48 1    
    95   48  110 1    
    96   48  111 1    
    97   49   50 am   BACKBONE|DICT|INTERRES
    98   49  112 1    
    99   50   51 2    
   100   50   52 1    
   101   52   53 1    
   102   52   54 1    
   103   52  113 1    
   104   53  114 1    
   105   53  115 1    
   106   53  116 1    
   107   54   55 am   BACKBONE|DICT|INTERRES
   108   54  117 1    
   109   55   56 2    
   110   55   57 1    
   111   57   58 1    
   112   57   59 1    
   113   57  118 1    
   114   58  119 1    
   115   58  120 1    
   116   58  121 1    
   117   59   60 am   BACKBONE|DICT|INTERRES
   118   59  122 1    
   119   60   61 2    
   120   60   62 1    
   121   62   63 1    
   122   62   64 1    
   123   62  123 1    
   124   63  124 1    
   125   63  125 1    
   126   63  126 1    
   127   64   65 am   BACKBONE|DICT|INTERRES
   128   64  127 1    
   129   65   66 2    
@<TRIPOS>SUBSTRUCTURE
     1 UNK         1 GROUP             0       ****    0 ROOT    
