@<TRIPOS>MOLECULE
3R135
127   129    1
SMALL
USER_CHARGES


@<TRIPOS>ATOM
      1 CA        -83.1610   25.1368  -73.3827 C.3       0 UNK        -0.1998 
      2 C         -82.3040   26.3013  -73.8519 C.2       0 UNK         0.4909 
      3 O         -82.5096   26.8020  -74.9579 O.2       0 UNK        -0.5240 
      4 N         -81.3423   26.7312  -73.0230 N.am      1 UNK        -0.4739 
      5 CA        -80.4140   27.8403  -73.2772 C.3       1 UNK         0.0864 
      6 C6        -79.4677   28.0986  -72.0776 C.3       11 UNK        -0.0881 
      7 S7        -80.3299   28.2441  -70.4703 S.3       11 UNK        -0.2682 
      8 C8        -79.0915   29.0742  -69.4091 C.3       11 UNK         0.0289 
      9 C9        -77.6670   28.5909  -69.6567 C.ar      11 UNK        -0.0687 
     10 C10       -77.3413   27.2366  -69.5275 C.ar      11 UNK        -0.0823 
     11 C11       -76.0688   26.7782  -69.8799 C.ar      11 UNK        -0.0830 
     12 C12       -75.1025   27.6899  -70.3133 C.ar      11 UNK        -0.1021 
     13 C13       -75.4108   29.0478  -70.4284 C.ar      11 UNK        -0.0753 
     14 C14       -76.6895   29.4948  -70.0837 C.ar      11 UNK        -0.0933 
     15 C15       -74.3883   30.0148  -71.0115 C.3       11 UNK         0.0166 
     16 S16       -74.9302   30.7072  -72.6116 S.3       11 UNK        -0.2615 
     17 C17       -75.5731   29.2179  -73.4559 C.3       11 UNK        -0.0865 
     18 CA        -75.7867   29.3337  -74.9876 C.3       10 UNK         0.0862 
     19 C         -76.8159   30.4214  -75.4232 C.2       10 UNK         0.5551 
     20 N         -76.7018   30.9973  -76.6129 N.am      10 UNK        -0.7319 
     21 O         -77.7676   30.7044  -74.6999 O.2       10 UNK        -0.5018 
     22 N         -74.5228   29.2300  -75.7356 N.am      10 UNK        -0.4509 
     23 C         -73.6267   30.1891  -76.0101 C.2       10 UNK         0.4899 
     24 O         -73.7755   31.3855  -75.7611 O.2       10 UNK        -0.4839 
     25 CA        -72.3348   29.6974  -76.6911 C.3       9 UNK         0.0222 
     26 CB        -71.2554   30.7928  -76.8320 C.3       9 UNK        -0.1966 
     27 N         -71.8045   28.4953  -76.0359 N.am      9 UNK        -0.4218 
     28 C         -71.3545   28.3875  -74.7729 C.2       9 UNK         0.5020 
     29 O         -71.2090   29.3459  -74.0133 O.2       9 UNK        -0.5274 
     30 CA        -71.0298   26.9755  -74.2459 C.3       8 UNK         0.0270 
     31 CB        -71.7039   26.7312  -72.8823 C.3       8 UNK        -0.1976 
     32 N         -71.4544   25.9266  -75.1763 N.am      8 UNK        -0.4313 
     33 C         -70.6701   25.3514  -76.0987 C.2       8 UNK         0.5041 
     34 O         -69.4706   25.6001  -76.2235 O.2       8 UNK        -0.5577 
     35 CA        -71.3254   24.3422  -77.0629 C.3       7 UNK         0.0284 
     36 CB        -71.0088   22.9026  -76.6262 C.3       7 UNK        -0.1958 
     37 N         -72.7780   24.4928  -77.1989 N.am      7 UNK        -0.4454 
     38 C         -73.4007   25.5575  -77.7248 C.2       7 UNK         0.5089 
     39 O         -72.8148   26.5462  -78.1652 O.2       7 UNK        -0.5125 
     40 CA        -74.9400   25.5460  -77.6737 C.3       6 UNK         0.0408 
     41 CB        -75.5049   24.8038  -78.8946 C.3       6 UNK        -0.1791 
     42 N         -75.4892   24.9569  -76.4442 N.am      6 UNK        -0.4762 
     43 C         -75.1929   25.3468  -75.1944 C.2       6 UNK         0.5007 
     44 O         -74.3955   26.2540  -74.9503 O.2       6 UNK        -0.5032 
     45 CA        -75.8830   24.5932  -74.0418 C.3       5 UNK         0.0783 
     46 C46       -75.7790   25.3542  -72.6948 C.3       11 UNK        -0.0857 
     47 S47       -76.5072   24.4373  -71.2922 S.3       11 UNK        -0.2512 
     48 C48       -75.7584   25.2893  -69.8635 C.3       11 UNK         0.0225 
     49 N         -77.2758   24.3162  -74.3953 N.am      5 UNK        -0.4615 
     50 C         -77.7980   23.0980  -74.5662 C.2       4 UNK         0.5053 
     51 O         -77.1300   22.0652  -74.6149 O.2       4 UNK        -0.5105 
     52 CA        -79.3236   23.0145  -74.6830 C.3       4 UNK         0.0263 
     53 CB        -79.9679   23.2547  -73.3073 C.3       4 UNK        -0.1981 
     54 N         -79.8547   23.9821  -75.6467 N.am      4 UNK        -0.4224 
     55 C         -80.4004   23.6546  -76.8279 C.2       3 UNK         0.4895 
     56 O         -80.4589   22.5003  -77.2546 O.2       3 UNK        -0.5091 
     57 CA        -81.0156   24.7798  -77.6810 C.3       3 UNK         0.0250 
     58 CB        -82.5490   24.6609  -77.7032 C.3       3 UNK        -0.1996 
     59 N         -80.6503   26.1205  -77.2202 N.am      3 UNK        -0.4254 
     60 C         -79.5359   26.7643  -77.5951 C.2       2 UNK         0.5004 
     61 O         -78.7289   26.3142  -78.4070 O.2       2 UNK        -0.5226 
     62 CA        -79.2558   28.1340  -76.9514 C.3       2 UNK         0.0269 
     63 CB        -79.7188   29.2667  -77.8806 C.3       2 UNK        -0.1926 
     64 N         -79.8651   28.3180  -75.6295 N.am      2 UNK        -0.4687 
     65 C         -79.5936   27.5686  -74.5535 C.2       1 UNK         0.5165 
     66 O         -78.7824   26.6402  -74.5610 O.2       1 UNK        -0.5079 
     67 H67       -82.8184   24.7373  -72.4303 H         1 UNK         0.0900 
     68 H68       -83.1372   24.3325  -74.1163 H         1 UNK         0.0900 
     69 H69       -84.1937   25.4582  -73.2644 H         1 UNK         0.0900 
     70 H70       -81.2312   26.2894  -72.1218 H         1 UNK         0.2959 
     71 H71       -81.0158   28.7381  -73.4311 H         1 UNK         0.1079 
     72 H72       -78.7385   27.2905  -71.9865 H         1 UNK         0.0837 
     73 H73       -78.8948   29.0119  -72.2495 H         1 UNK         0.0837 
     74 H74       -79.1655   30.1499  -69.5755 H         1 UNK         0.0685 
     75 H75       -79.3508   28.9070  -68.3630 H         1 UNK         0.0685 
     76 H76       -78.0996   26.5300  -69.2185 H         1 UNK         0.1434 
     77 H77       -74.1240   27.3351  -70.6069 H         1 UNK         0.1329 
     78 H78       -76.9357   30.5409  -70.2054 H         1 UNK         0.1335 
     79 H79       -74.2154   30.8302  -70.3081 H         1 UNK         0.0680 
     80 H80       -73.4260   29.5206  -71.1560 H         1 UNK         0.0680 
     81 H81       -74.8955   28.3881  -73.2505 H         1 UNK         0.1032 
     82 H82       -76.5178   28.9448  -72.9841 H         1 UNK         0.1032 
     83 H83       -76.2969   28.4103  -75.2639 H         1 UNK         0.0461 
     84 H84       -77.3746   31.6931  -76.8913 H         1 UNK         0.3453 
     85 H85       -75.9103   30.7942  -77.2013 H         1 UNK         0.3453 
     86 H86       -74.2654   28.2795  -75.9654 H         1 UNK         0.2984 
     87 H87       -72.6193   29.3911  -77.6988 H         1 UNK         0.0554 
     88 H88       -70.3590   30.4070  -77.3173 H         1 UNK         0.0847 
     89 H89       -70.9635   31.2063  -75.8663 H         1 UNK         0.0847 
     90 H90       -71.6211   31.6216  -77.4392 H         1 UNK         0.0847 
     91 H91       -71.8853   27.6457  -76.5830 H         1 UNK         0.3141 
     92 H92       -69.9488   26.9251  -74.1002 H         1 UNK         0.0743 
     93 H93       -72.7811   26.8890  -72.9318 H         1 UNK         0.0784 
     94 H94       -71.5264   25.7172  -72.5237 H         1 UNK         0.0784 
     95 H95       -71.3141   27.4137  -72.1260 H         1 UNK         0.0784 
     96 H96       -72.4463   25.7127  -75.1679 H         1 UNK         0.3213 
     97 H97       -70.8829   24.5060  -78.0479 H         1 UNK         0.0855 
     98 H98       -71.4437   22.6702  -75.6533 H         1 UNK         0.0814 
     99 H99       -69.9319   22.7471  -76.5463 H         1 UNK         0.0814 
    100 H100      -71.3849   22.1759  -77.3467 H         1 UNK         0.0814 
    101 H101      -73.3491   23.7355  -76.8524 H         1 UNK         0.3105 
    102 H102      -75.2809   26.5824  -77.7163 H         1 UNK         0.0547 
    103 H103      -75.1490   25.2533  -79.8227 H         1 UNK         0.0837 
    104 H104      -75.2079   23.7546  -78.9056 H         1 UNK         0.0837 
    105 H105      -76.5934   24.8421  -78.9173 H         1 UNK         0.0837 
    106 H106      -76.1646   24.2144  -76.5581 H         1 UNK         0.3020 
    107 H107      -75.3296   23.6584  -73.9292 H         1 UNK         0.1245 
    108 H108      -76.2789   26.3217  -72.7659 H         1 UNK         0.0781 
    109 H109      -74.7347   25.5574  -72.4536 H         1 UNK         0.0781 
    110 H110      -74.6809   25.1171  -69.8642 H         1 UNK         0.0836 
    111 H111      -76.1391   24.8450  -68.9428 H         1 UNK         0.0836 
    112 H112      -77.8849   25.1331  -74.4090 H         1 UNK         0.3022 
    113 H113      -79.5700   21.9953  -74.9870 H         1 UNK         0.0747 
    114 H114      -81.0433   23.0876  -73.3430 H         1 UNK         0.0793 
    115 H115      -79.5611   22.5706  -72.5612 H         1 UNK         0.0793 
    116 H116      -79.7921   24.2680  -72.9456 H         1 UNK         0.0793 
    117 H117      -79.7806   24.9611  -75.3988 H         1 UNK         0.3047 
    118 H118      -80.6567   24.6416  -78.7032 H         1 UNK         0.0822 
    119 H119      -82.9965   25.4245  -78.3396 H         1 UNK         0.0807 
    120 H120      -82.9785   24.7619  -76.7063 H         1 UNK         0.0807 
    121 H121      -82.8609   23.6914  -78.0945 H         1 UNK         0.0807 
    122 H122      -81.2674   26.5532  -76.5378 H         1 UNK         0.2946 
    123 H123      -78.1735   28.2045  -76.8339 H         1 UNK         0.1144 
    124 H124      -79.2440   29.1868  -78.8596 H         1 UNK         0.0793 
    125 H125      -79.4585   30.2445  -77.4756 H         1 UNK         0.0793 
    126 H126      -80.7979   29.2442  -78.0378 H         1 UNK         0.0793 
    127 H127      -80.5719   29.0359  -75.5569 H         1 UNK         0.2896 
@<TRIPOS>BOND
     1    1    2 1    
     2    1   67 1    
     3    1   68 1    
     4    1   69 1    
     5    2    3 2    
     6    2    4 am   BACKBONE|DICT|INTERRES
     7    4    5 1    
     8    4   70 1    
     9    5    6 1    
    10    5   65 1    
    11    5   71 1    
    12    6    7 1    
    13    6   72 1    
    14    6   73 1    
    15    7    8 1    
    16    8    9 1    
    17    8   74 1    
    18    8   75 1    
    19    9   10 ar   
    20    9   14 ar   
    21   10   11 ar   
    22   10   76 1    
    23   11   12 ar   
    24   11   48 1    
    25   12   13 ar   
    26   12   77 1    
    27   13   14 ar   
    28   13   15 1    
    29   14   78 1    
    30   15   16 1    
    31   15   79 1    
    32   15   80 1    
    33   16   17 1    
    34   17   18 1    
    35   17   81 1    
    36   17   82 1    
    37   18   19 1    
    38   18   22 1    
    39   18   83 1    
    40   19   20 am   BACKBONE|DICT|INTERRES
    41   19   21 2    
    42   20   84 1    
    43   20   85 1    
    44   22   23 am   BACKBONE|DICT|INTERRES
    45   22   86 1    
    46   23   24 2    
    47   23   25 1    
    48   25   26 1    
    49   25   27 1    
    50   25   87 1    
    51   26   88 1    
    52   26   89 1    
    53   26   90 1    
    54   27   28 am   BACKBONE|DICT|INTERRES
    55   27   91 1    
    56   28   29 2    
    57   28   30 1    
    58   30   31 1    
    59   30   32 1    
    60   30   92 1    
    61   31   93 1    
    62   31   94 1    
    63   31   95 1    
    64   32   33 am   BACKBONE|DICT|INTERRES
    65   32   96 1    
    66   33   34 2    
    67   33   35 1    
    68   35   36 1    
    69   35   37 1    
    70   35   97 1    
    71   36   98 1    
    72   36   99 1    
    73   36  100 1    
    74   37   38 am   BACKBONE|DICT|INTERRES
    75   37  101 1    
    76   38   39 2    
    77   38   40 1    
    78   40   41 1    
    79   40   42 1    
    80   40  102 1    
    81   41  103 1    
    82   41  104 1    
    83   41  105 1    
    84   42   43 am   BACKBONE|DICT|INTERRES
    85   42  106 1    
    86   43   44 2    
    87   43   45 1    
    88   45   46 1    
    89   45   49 1    
    90   45  107 1    
    91   46   47 1    
    92   46  108 1    
    93   46  109 1    
    94   47   48 1    
    95   48  110 1    
    96   48  111 1    
    97   49   50 am   BACKBONE|DICT|INTERRES
    98   49  112 1    
    99   50   51 2    
   100   50   52 1    
   101   52   53 1    
   102   52   54 1    
   103   52  113 1    
   104   53  114 1    
   105   53  115 1    
   106   53  116 1    
   107   54   55 am   BACKBONE|DICT|INTERRES
   108   54  117 1    
   109   55   56 2    
   110   55   57 1    
   111   57   58 1    
   112   57   59 1    
   113   57  118 1    
   114   58  119 1    
   115   58  120 1    
   116   58  121 1    
   117   59   60 am   BACKBONE|DICT|INTERRES
   118   59  122 1    
   119   60   61 2    
   120   60   62 1    
   121   62   63 1    
   122   62   64 1    
   123   62  123 1    
   124   63  124 1    
   125   63  125 1    
   126   63  126 1    
   127   64   65 am   BACKBONE|DICT|INTERRES
   128   64  127 1    
   129   65   66 2    
@<TRIPOS>SUBSTRUCTURE
     1 UNK         1 GROUP             0       ****    0 ROOT    
