@<TRIPOS>MOLECULE
3R135
127   129    1
SMALL
USER_CHARGES


@<TRIPOS>ATOM
      1 CA        -82.9564   25.8458  -72.4828 C.3       0 UNK        -0.1998 
      2 C         -82.6145   25.9335  -73.9619 C.2       0 UNK         0.4909 
      3 O         -83.1708   25.1841  -74.7656 O.2       0 UNK        -0.5240 
      4 N         -81.7049   26.8449  -74.3326 N.am      1 UNK        -0.4739 
      5 CA        -81.2356   27.0309  -75.7085 C.3       1 UNK         0.0864 
      6 C6        -80.4526   28.3588  -75.8891 C.3       11 UNK        -0.0881 
      7 S7        -78.8847   28.4546  -74.9597 S.3       11 UNK        -0.2682 
      8 C8        -79.3198   29.5118  -73.5480 C.3       11 UNK         0.0289 
      9 C9        -78.2355   29.4071  -72.4901 C.ar      11 UNK        -0.0687 
     10 C10       -78.1501   28.2532  -71.7070 C.ar      11 UNK        -0.0823 
     11 C11       -77.1031   28.0906  -70.7970 C.ar      11 UNK        -0.0830 
     12 C12       -76.1735   29.1184  -70.6271 C.ar      11 UNK        -0.1021 
     13 C13       -76.2386   30.2706  -71.4168 C.ar      11 UNK        -0.0753 
     14 C14       -77.2791   30.4162  -72.3404 C.ar      11 UNK        -0.0933 
     15 C15       -75.1445   31.3244  -71.3150 C.3       11 UNK         0.0166 
     16 S16       -74.0001   31.2528  -72.7352 S.3       11 UNK        -0.2615 
     17 C17       -73.3676   29.5395  -72.6532 C.3       11 UNK        -0.0865 
     18 CA        -71.8230   29.4536  -72.6076 C.3       10 UNK         0.0862 
     19 C         -71.3914   27.9974  -72.2734 C.2       10 UNK         0.5551 
     20 N         -71.0441   27.7240  -71.0232 N.am      10 UNK        -0.7319 
     21 O         -71.4246   27.1094  -73.1215 O.2       10 UNK        -0.5018 
     22 N         -71.2151   29.9618  -73.8484 N.am      10 UNK        -0.4509 
     23 C         -69.8959   30.0582  -74.0732 C.2       10 UNK         0.4899 
     24 O         -69.0412   29.8178  -73.2184 O.2       10 UNK        -0.4839 
     25 CA        -69.4484   30.5305  -75.4733 C.3       9 UNK         0.0222 
     26 CB        -68.0238   30.0588  -75.8377 C.3       9 UNK        -0.1966 
     27 N         -70.4002   30.1995  -76.5404 N.am      9 UNK        -0.4218 
     28 C         -70.7901   28.9827  -76.9490 C.2       9 UNK         0.5020 
     29 O         -70.3442   27.9213  -76.5099 O.2       9 UNK        -0.5274 
     30 CA        -71.8866   28.9641  -78.0314 C.3       8 UNK         0.0270 
     31 CB        -71.6880   27.8024  -79.0218 C.3       8 UNK        -0.1976 
     32 N         -73.2447   28.8863  -77.4842 N.am      8 UNK        -0.4313 
     33 C         -73.8166   29.7088  -76.5970 C.2       8 UNK         0.5041 
     34 O         -73.2266   30.6477  -76.0630 O.2       8 UNK        -0.5577 
     35 CA        -75.3028   29.4868  -76.2503 C.3       7 UNK         0.0284 
     36 CB        -76.1948   30.3745  -77.1386 C.3       7 UNK        -0.1958 
     37 N         -75.7922   28.0985  -76.2534 N.am      7 UNK        -0.4454 
     38 C         -75.8678   27.2104  -77.2554 C.2       7 UNK         0.5089 
     39 O         -75.4062   27.4056  -78.3806 O.2       7 UNK        -0.5125 
     40 CA        -76.6058   25.8893  -76.9536 C.3       6 UNK         0.0408 
     41 CB        -76.1221   24.7190  -77.8361 C.3       6 UNK        -0.1791 
     42 N         -76.6136   25.5149  -75.5316 N.am      6 UNK        -0.4762 
     43 C         -75.5483   25.1980  -74.7760 C.2       6 UNK         0.5007 
     44 O         -74.3960   25.1634  -75.2072 O.2       6 UNK        -0.5032 
     45 CA        -75.7876   24.9041  -73.2786 C.3       5 UNK         0.0783 
     46 C46       -75.3235   26.1158  -72.4336 C.3       11 UNK        -0.0857 
     47 S47       -75.4256   25.8539  -70.6216 S.3       11 UNK        -0.2512 
     48 C48       -76.9200   26.7641  -70.0757 C.3       11 UNK         0.0225 
     49 N         -77.1699   24.5173  -72.9739 N.am      5 UNK        -0.4615 
     50 C         -77.7275   23.3434  -73.2977 C.2       4 UNK         0.5053 
     51 O         -77.1484   22.4740  -73.9502 O.2       4 UNK        -0.5105 
     52 CA        -79.1531   23.0704  -72.7901 C.3       4 UNK         0.0263 
     53 CB        -79.7543   24.2043  -71.9347 C.3       4 UNK        -0.1981 
     54 N         -80.0226   22.8300  -73.9373 N.am      4 UNK        -0.4224 
     55 C         -80.7030   21.7008  -74.1787 C.2       3 UNK         0.4895 
     56 O         -80.6845   20.7205  -73.4324 O.2       3 UNK        -0.5091 
     57 CA        -81.5736   21.6401  -75.4504 C.3       3 UNK         0.0250 
     58 CB        -83.0666   21.6106  -75.0818 C.3       3 UNK        -0.1996 
     59 N         -81.3335   22.7534  -76.3716 N.am      3 UNK        -0.4254 
     60 C         -80.3067   22.8196  -77.2316 C.2       2 UNK         0.5004 
     61 O         -79.5055   21.9020  -77.4083 O.2       2 UNK        -0.5226 
     62 CA        -80.1227   24.1334  -78.0177 C.3       2 UNK         0.0269 
     63 CB        -80.6538   23.9801  -79.4520 C.3       2 UNK        -0.1926 
     64 N         -80.7398   25.3159  -77.4010 N.am      2 UNK        -0.4687 
     65 C         -80.4436   25.7938  -76.1843 C.2       1 UNK         0.5165 
     66 O         -79.6068   25.2777  -75.4373 O.2       1 UNK        -0.5079 
     67 H67       -82.2378   26.3853  -71.8662 H         1 UNK         0.0900 
     68 H68       -83.9457   26.2653  -72.3029 H         1 UNK         0.0900 
     69 H69       -82.9664   24.8049  -72.1610 H         1 UNK         0.0900 
     70 H70       -81.2484   27.4136  -73.6363 H         1 UNK         0.2959 
     71 H71       -82.1302   27.1053  -76.3313 H         1 UNK         0.1079 
     72 H72       -81.0863   29.2029  -75.6125 H         1 UNK         0.0837 
     73 H73       -80.2194   28.5086  -76.9448 H         1 UNK         0.0837 
     74 H74       -80.2763   29.2031  -73.1250 H         1 UNK         0.0685 
     75 H75       -79.4409   30.5418  -73.8868 H         1 UNK         0.0685 
     76 H76       -78.8686   27.4591  -71.8538 H         1 UNK         0.1434 
     77 H77       -75.3572   28.9859  -69.9300 H         1 UNK         0.1329 
     78 H78       -77.3186   31.2960  -72.9681 H         1 UNK         0.1335 
     79 H79       -75.5975   32.3160  -71.2735 H         1 UNK         0.0680 
     80 H80       -74.5765   31.2070  -70.3907 H         1 UNK         0.0680 
     81 H81       -73.7580   28.9815  -73.5058 H         1 UNK         0.1032 
     82 H82       -73.7780   29.0520  -71.7699 H         1 UNK         0.1032 
     83 H83       -71.4748   30.1016  -71.8005 H         1 UNK         0.0461 
     84 H84       -70.7811   26.7810  -70.7838 H         1 UNK         0.3453 
     85 H85       -71.0213   28.4439  -70.3180 H         1 UNK         0.3453 
     86 H86       -71.8579   30.1984  -74.5979 H         1 UNK         0.2984 
     87 H87       -69.4269   31.6200  -75.4236 H         1 UNK         0.0554 
     88 H88       -67.2903   30.4393  -75.1257 H         1 UNK         0.0847 
     89 H89       -67.7272   30.4137  -76.8246 H         1 UNK         0.0847 
     90 H90       -67.9442   28.9713  -75.8337 H         1 UNK         0.0847 
     91 H91       -70.9031   30.9898  -76.9231 H         1 UNK         0.3141 
     92 H92       -71.8179   29.8944  -78.5987 H         1 UNK         0.0743 
     93 H93       -70.6850   27.8205  -79.4503 H         1 UNK         0.0784 
     94 H94       -72.3953   27.8609  -79.8495 H         1 UNK         0.0784 
     95 H95       -71.8198   26.8333  -78.5382 H         1 UNK         0.0784 
     96 H96       -73.8561   28.1794  -77.8886 H         1 UNK         0.3213 
     97 H97       -75.4284   29.8327  -75.2227 H         1 UNK         0.0855 
     98 H98       -76.1413   30.0833  -78.1881 H         1 UNK         0.0814 
     99 H99       -75.8899   31.4200  -77.0754 H         1 UNK         0.0814 
    100 H100      -77.2385   30.3242  -76.8287 H         1 UNK         0.0814 
    101 H101      -76.2181   27.8054  -75.3851 H         1 UNK         0.3105 
    102 H102      -77.6460   26.0825  -77.2131 H         1 UNK         0.0547 
    103 H103      -76.6455   23.7942  -77.5932 H         1 UNK         0.0837 
    104 H104      -75.0532   24.5388  -77.7200 H         1 UNK         0.0837 
    105 H105      -76.3014   24.9256  -78.8918 H         1 UNK         0.0837 
    106 H106      -77.5339   25.4955  -75.1024 H         1 UNK         0.3020 
    107 H107      -75.1476   24.0552  -73.0258 H         1 UNK         0.1245 
    108 H108      -75.8583   27.0146  -72.7366 H         1 UNK         0.0781 
    109 H109      -74.2738   26.3287  -72.6473 H         1 UNK         0.0781 
    110 H110      -76.8487   26.9458  -69.0024 H         1 UNK         0.0836 
    111 H111      -77.7927   26.1264  -70.2132 H         1 UNK         0.0836 
    112 H112      -77.7081   25.1773  -72.4355 H         1 UNK         0.3022 
    113 H113      -79.0879   22.1784  -72.1638 H         1 UNK         0.0747 
    114 H114      -80.7511   23.9344  -71.5873 H         1 UNK         0.0793 
    115 H115      -79.1550   24.3870  -71.0428 H         1 UNK         0.0793 
    116 H116      -79.8401   25.1380  -72.4918 H         1 UNK         0.0793 
    117 H117      -80.0364   23.5744  -74.6288 H         1 UNK         0.3047 
    118 H118      -81.3342   20.7047  -75.9611 H         1 UNK         0.0822 
    119 H119      -83.6944   21.5318  -75.9695 H         1 UNK         0.0807 
    120 H120      -83.3660   22.5059  -74.5361 H         1 UNK         0.0807 
    121 H121      -83.2957   20.7529  -74.4478 H         1 UNK         0.0807 
    122 H122      -81.9410   23.5571  -76.2778 H         1 UNK         0.2946 
    123 H123      -79.0483   24.3142  -78.0719 H         1 UNK         0.1144 
    124 H124      -80.4316   24.8609  -80.0548 H         1 UNK         0.0793 
    125 H125      -81.7330   23.8232  -79.4680 H         1 UNK         0.0793 
    126 H126      -80.1931   23.1259  -79.9505 H         1 UNK         0.0793 
    127 H127      -81.4476   25.7843  -77.9490 H         1 UNK         0.2896 
@<TRIPOS>BOND
     1    1    2 1    
     2    1   67 1    
     3    1   68 1    
     4    1   69 1    
     5    2    3 2    
     6    2    4 am   BACKBONE|DICT|INTERRES
     7    4    5 1    
     8    4   70 1    
     9    5    6 1    
    10    5   65 1    
    11    5   71 1    
    12    6    7 1    
    13    6   72 1    
    14    6   73 1    
    15    7    8 1    
    16    8    9 1    
    17    8   74 1    
    18    8   75 1    
    19    9   10 ar   
    20    9   14 ar   
    21   10   11 ar   
    22   10   76 1    
    23   11   12 ar   
    24   11   48 1    
    25   12   13 ar   
    26   12   77 1    
    27   13   14 ar   
    28   13   15 1    
    29   14   78 1    
    30   15   16 1    
    31   15   79 1    
    32   15   80 1    
    33   16   17 1    
    34   17   18 1    
    35   17   81 1    
    36   17   82 1    
    37   18   19 1    
    38   18   22 1    
    39   18   83 1    
    40   19   20 am   BACKBONE|DICT|INTERRES
    41   19   21 2    
    42   20   84 1    
    43   20   85 1    
    44   22   23 am   BACKBONE|DICT|INTERRES
    45   22   86 1    
    46   23   24 2    
    47   23   25 1    
    48   25   26 1    
    49   25   27 1    
    50   25   87 1    
    51   26   88 1    
    52   26   89 1    
    53   26   90 1    
    54   27   28 am   BACKBONE|DICT|INTERRES
    55   27   91 1    
    56   28   29 2    
    57   28   30 1    
    58   30   31 1    
    59   30   32 1    
    60   30   92 1    
    61   31   93 1    
    62   31   94 1    
    63   31   95 1    
    64   32   33 am   BACKBONE|DICT|INTERRES
    65   32   96 1    
    66   33   34 2    
    67   33   35 1    
    68   35   36 1    
    69   35   37 1    
    70   35   97 1    
    71   36   98 1    
    72   36   99 1    
    73   36  100 1    
    74   37   38 am   BACKBONE|DICT|INTERRES
    75   37  101 1    
    76   38   39 2    
    77   38   40 1    
    78   40   41 1    
    79   40   42 1    
    80   40  102 1    
    81   41  103 1    
    82   41  104 1    
    83   41  105 1    
    84   42   43 am   BACKBONE|DICT|INTERRES
    85   42  106 1    
    86   43   44 2    
    87   43   45 1    
    88   45   46 1    
    89   45   49 1    
    90   45  107 1    
    91   46   47 1    
    92   46  108 1    
    93   46  109 1    
    94   47   48 1    
    95   48  110 1    
    96   48  111 1    
    97   49   50 am   BACKBONE|DICT|INTERRES
    98   49  112 1    
    99   50   51 2    
   100   50   52 1    
   101   52   53 1    
   102   52   54 1    
   103   52  113 1    
   104   53  114 1    
   105   53  115 1    
   106   53  116 1    
   107   54   55 am   BACKBONE|DICT|INTERRES
   108   54  117 1    
   109   55   56 2    
   110   55   57 1    
   111   57   58 1    
   112   57   59 1    
   113   57  118 1    
   114   58  119 1    
   115   58  120 1    
   116   58  121 1    
   117   59   60 am   BACKBONE|DICT|INTERRES
   118   59  122 1    
   119   60   61 2    
   120   60   62 1    
   121   62   63 1    
   122   62   64 1    
   123   62  123 1    
   124   63  124 1    
   125   63  125 1    
   126   63  126 1    
   127   64   65 am   BACKBONE|DICT|INTERRES
   128   64  127 1    
   129   65   66 2    
@<TRIPOS>SUBSTRUCTURE
     1 UNK         1 GROUP             0       ****    0 ROOT    
