@<TRIPOS>MOLECULE
3R135
127   129    1
SMALL
USER_CHARGES


@<TRIPOS>ATOM
      1 CA        -85.3275   29.1292  -73.8476 C.3       0 UNK        -0.1998 
      2 C         -83.8354   29.1126  -74.1432 C.2       0 UNK         0.4909 
      3 O         -83.3577   29.9279  -74.9325 O.2       0 UNK        -0.5240 
      4 N         -83.0954   28.1870  -73.5190 N.am      1 UNK        -0.4739 
      5 CA        -81.6392   28.0377  -73.6675 C.3       1 UNK         0.0864 
      6 C6        -80.9961   27.3074  -72.4588 C.3       11 UNK        -0.0881 
      7 S7        -81.5180   27.9475  -70.8264 S.3       11 UNK        -0.2682 
      8 C8        -80.4385   29.4055  -70.5950 C.3       11 UNK         0.0289 
      9 C9        -78.9379   29.1291  -70.4744 C.ar      11 UNK        -0.0687 
     10 C10       -78.4176   27.8539  -70.2152 C.ar      11 UNK        -0.0823 
     11 C11       -77.0368   27.6395  -70.1828 C.ar      11 UNK        -0.0830 
     12 C12       -76.1672   28.7203  -70.3440 C.ar      11 UNK        -0.1021 
     13 C13       -76.6689   30.0014  -70.5802 C.ar      11 UNK        -0.0753 
     14 C14       -78.0514   30.1986  -70.6420 C.ar      11 UNK        -0.0933 
     15 C15       -75.7145   31.1676  -70.7868 C.3       11 UNK         0.0166 
     16 S16       -75.6129   31.6747  -72.5340 S.3       11 UNK        -0.2615 
     17 C17       -74.8614   30.2182  -73.3411 C.3       11 UNK        -0.0865 
     18 CA        -73.3244   30.3546  -73.5075 C.3       10 UNK         0.0862 
     19 C         -72.5559   29.8192  -72.2723 C.2       10 UNK         0.5551 
     20 N         -71.9324   30.6944  -71.4958 N.am      10 UNK        -0.7319 
     21 O         -72.5558   28.6221  -71.9934 O.2       10 UNK        -0.5018 
     22 N         -72.8715   29.6833  -74.7295 N.am      10 UNK        -0.4509 
     23 C         -71.8022   30.0502  -75.4454 C.2       10 UNK         0.4899 
     24 O         -71.0802   31.0067  -75.1570 O.2       10 UNK        -0.4839 
     25 CA        -71.5186   29.2248  -76.7135 C.3       9 UNK         0.0222 
     26 CB        -70.2178   29.6380  -77.4358 C.3       9 UNK        -0.1966 
     27 N         -71.5538   27.7799  -76.4718 N.am      9 UNK        -0.4218 
     28 C         -70.7347   27.0537  -75.6944 C.2       9 UNK         0.5020 
     29 O         -69.7983   27.5303  -75.0513 O.2       9 UNK        -0.5274 
     30 CA        -70.9874   25.5325  -75.6113 C.3       8 UNK         0.0270 
     31 CB        -71.4013   25.1345  -74.1846 C.3       8 UNK        -0.1976 
     32 N         -71.9993   25.0418  -76.5524 N.am      8 UNK        -0.4313 
     33 C         -71.8459   24.9376  -77.8797 C.2       8 UNK         0.5041 
     34 O         -70.7859   25.1540  -78.4672 O.2       8 UNK        -0.5577 
     35 CA        -73.1070   24.5921  -78.6919 C.3       7 UNK         0.0284 
     36 CB        -73.2950   23.0701  -78.8006 C.3       7 UNK        -0.1958 
     37 N         -74.3159   25.2072  -78.1311 N.am      7 UNK        -0.4454 
     38 C         -74.5668   26.5252  -78.1307 C.2       7 UNK         0.5089 
     39 O         -73.8280   27.3616  -78.6485 O.2       7 UNK        -0.5125 
     40 CA        -75.8205   26.9954  -77.3762 C.3       6 UNK         0.0408 
     41 CB        -77.0720   26.8727  -78.2592 C.3       6 UNK        -0.1791 
     42 N         -76.0162   26.2551  -76.1284 N.am      6 UNK        -0.4762 
     43 C         -75.2562   26.4150  -75.0329 C.2       6 UNK         0.5007 
     44 O         -74.3468   27.2412  -74.9577 O.2       6 UNK        -0.5032 
     45 CA        -75.5405   25.4890  -73.8281 C.3       5 UNK         0.0783 
     46 C46       -76.5933   26.1508  -72.9116 C.3       11 UNK        -0.0857 
     47 S47       -77.0024   25.1538  -71.4324 S.3       11 UNK        -0.2512 
     48 C48       -76.4790   26.2289  -70.0515 C.3       11 UNK         0.0225 
     49 N         -75.9588   24.1444  -74.2300 N.am      5 UNK        -0.4615 
     50 C         -75.2967   23.3108  -75.0406 C.2       4 UNK         0.5053 
     51 O         -74.1617   23.5304  -75.4595 O.2       4 UNK        -0.5105 
     52 CA        -76.0539   22.0567  -75.5230 C.3       4 UNK         0.0263 
     53 CB        -75.5783   20.8177  -74.7490 C.3       4 UNK        -0.1981 
     54 N         -77.5202   22.1545  -75.4326 N.am      4 UNK        -0.4224 
     55 C         -78.2760   23.1076  -75.9999 C.2       3 UNK         0.4895 
     56 O         -77.8140   24.0112  -76.7025 O.2       3 UNK        -0.5091 
     57 CA        -79.7778   23.0861  -75.6789 C.3       3 UNK         0.0250 
     58 CB        -80.0514   22.9403  -74.1661 C.3       3 UNK        -0.1996 
     59 N         -80.3729   24.3308  -76.1569 N.am      3 UNK        -0.4254 
     60 C         -81.6466   24.5132  -76.5113 C.2       2 UNK         0.5004 
     61 O         -82.5027   23.6265  -76.4830 O.2       2 UNK        -0.5226 
     62 CA        -82.0314   25.9490  -76.9058 C.3       2 UNK         0.0269 
     63 CB        -83.3213   26.0039  -77.7456 C.3       2 UNK        -0.1926 
     64 N         -82.2181   26.7549  -75.6993 N.am      2 UNK        -0.4687 
     65 C         -81.2401   27.3331  -74.9862 C.2       1 UNK         0.5165 
     66 O         -80.0548   27.3020  -75.3218 O.2       1 UNK        -0.5079 
     67 H67       -85.6100   28.3576  -73.1316 H         1 UNK         0.0900 
     68 H68       -85.8937   28.9657  -74.7641 H         1 UNK         0.0900 
     69 H69       -85.6170   30.0955  -73.4356 H         1 UNK         0.0900 
     70 H70       -83.5323   27.5569  -72.8606 H         1 UNK         0.2959 
     71 H71       -81.2039   29.0384  -73.7145 H         1 UNK         0.1079 
     72 H72       -79.9078   27.3493  -72.5298 H         1 UNK         0.0837 
     73 H73       -81.2517   26.2459  -72.4803 H         1 UNK         0.0837 
     74 H74       -80.6160   30.0927  -71.4238 H         1 UNK         0.0685 
     75 H75       -80.7617   29.9248  -69.6920 H         1 UNK         0.0685 
     76 H76       -79.0760   27.0069  -70.0858 H         1 UNK         0.1434 
     77 H77       -75.0974   28.5596  -70.3235 H         1 UNK         0.1329 
     78 H78       -78.4364   31.1900  -70.8397 H         1 UNK         0.1335 
     79 H79       -74.7166   30.9238  -70.4198 H         1 UNK         0.0680 
     80 H80       -76.0548   32.0183  -70.1947 H         1 UNK         0.0680 
     81 H81       -75.1360   29.2940  -72.8328 H         1 UNK         0.1032 
     82 H82       -75.3347   30.1471  -74.3219 H         1 UNK         0.1032 
     83 H83       -73.0976   31.4170  -73.6228 H         1 UNK         0.0461 
     84 H84       -71.4373   30.3638  -70.6827 H         1 UNK         0.3453 
     85 H85       -71.9326   31.6777  -71.7181 H         1 UNK         0.3453 
     86 H86       -73.3619   28.8237  -74.9676 H         1 UNK         0.2984 
     87 H87       -72.3445   29.4320  -77.3953 H         1 UNK         0.0554 
     88 H88       -70.0645   29.0518  -78.3419 H         1 UNK         0.0847 
     89 H89       -69.3405   29.5106  -76.8010 H         1 UNK         0.0847 
     90 H90       -70.2530   30.6872  -77.7316 H         1 UNK         0.0847 
     91 H91       -72.2993   27.2883  -76.9474 H         1 UNK         0.3141 
     92 H92       -70.0439   25.0348  -75.8443 H         1 UNK         0.0743 
     93 H93       -71.5848   24.0627  -74.1044 H         1 UNK         0.0784 
     94 H94       -70.6185   25.3845  -73.4672 H         1 UNK         0.0784 
     95 H95       -72.3046   25.6568  -73.8702 H         1 UNK         0.0784 
     96 H96       -72.8831   24.7354  -76.1512 H         1 UNK         0.3213 
     97 H97       -72.9676   24.9883  -79.7003 H         1 UNK         0.0855 
     98 H98       -72.4253   22.6059  -79.2674 H         1 UNK         0.0814 
     99 H99       -74.1618   22.8193  -79.4123 H         1 UNK         0.0814 
    100 H100      -73.4252   22.6022  -77.8248 H         1 UNK         0.0814 
    101 H101      -74.9608   24.5976  -77.6487 H         1 UNK         0.3105 
    102 H102      -75.6878   28.0510  -77.1287 H         1 UNK         0.0547 
    103 H103      -76.9711   27.4774  -79.1613 H         1 UNK         0.0837 
    104 H104      -77.2481   25.8443  -78.5762 H         1 UNK         0.0837 
    105 H105      -77.9629   27.2185  -77.7343 H         1 UNK         0.0837 
    106 H106      -76.7246   25.5261  -76.1408 H         1 UNK         0.3020 
    107 H107      -74.6085   25.3873  -73.2692 H         1 UNK         0.1245 
    108 H108      -77.5242   26.3231  -73.4566 H         1 UNK         0.0781 
    109 H109      -76.2401   27.1368  -72.6129 H         1 UNK         0.0781 
    110 H110      -75.3886   26.2426  -70.0123 H         1 UNK         0.0836 
    111 H111      -76.8164   25.7928  -69.1103 H         1 UNK         0.0836 
    112 H112      -76.8718   23.8618  -73.9079 H         1 UNK         0.3022 
    113 H113      -75.8023   21.9203  -76.5767 H         1 UNK         0.0747 
    114 H114      -76.0235   19.9051  -75.1460 H         1 UNK         0.0793 
    115 H115      -74.4954   20.7043  -74.8212 H         1 UNK         0.0793 
    116 H116      -75.8290   20.8827  -73.6894 H         1 UNK         0.0793 
    117 H117      -77.9786   21.4508  -74.8715 H         1 UNK         0.3047 
    118 H118      -80.2186   22.2440  -76.2165 H         1 UNK         0.0822 
    119 H119      -79.5680   23.7318  -73.5911 H         1 UNK         0.0807 
    120 H120      -79.6954   21.9851  -73.7797 H         1 UNK         0.0807 
    121 H121      -81.1195   22.9843  -73.9517 H         1 UNK         0.0807 
    122 H122      -79.7248   25.1066  -76.2321 H         1 UNK         0.2946 
    123 H123      -81.2203   26.3690  -77.5059 H         1 UNK         0.1144 
    124 H124      -83.2223   25.4023  -78.6502 H         1 UNK         0.0793 
    125 H125      -84.1836   25.6259  -77.1948 H         1 UNK         0.0793 
    126 H126      -83.5458   27.0239  -78.0583 H         1 UNK         0.0793 
    127 H127      -83.1572   26.8076  -75.3323 H         1 UNK         0.2896 
@<TRIPOS>BOND
     1    1    2 1    
     2    1   67 1    
     3    1   68 1    
     4    1   69 1    
     5    2    3 2    
     6    2    4 am   BACKBONE|DICT|INTERRES
     7    4    5 1    
     8    4   70 1    
     9    5    6 1    
    10    5   65 1    
    11    5   71 1    
    12    6    7 1    
    13    6   72 1    
    14    6   73 1    
    15    7    8 1    
    16    8    9 1    
    17    8   74 1    
    18    8   75 1    
    19    9   10 ar   
    20    9   14 ar   
    21   10   11 ar   
    22   10   76 1    
    23   11   12 ar   
    24   11   48 1    
    25   12   13 ar   
    26   12   77 1    
    27   13   14 ar   
    28   13   15 1    
    29   14   78 1    
    30   15   16 1    
    31   15   79 1    
    32   15   80 1    
    33   16   17 1    
    34   17   18 1    
    35   17   81 1    
    36   17   82 1    
    37   18   19 1    
    38   18   22 1    
    39   18   83 1    
    40   19   20 am   BACKBONE|DICT|INTERRES
    41   19   21 2    
    42   20   84 1    
    43   20   85 1    
    44   22   23 am   BACKBONE|DICT|INTERRES
    45   22   86 1    
    46   23   24 2    
    47   23   25 1    
    48   25   26 1    
    49   25   27 1    
    50   25   87 1    
    51   26   88 1    
    52   26   89 1    
    53   26   90 1    
    54   27   28 am   BACKBONE|DICT|INTERRES
    55   27   91 1    
    56   28   29 2    
    57   28   30 1    
    58   30   31 1    
    59   30   32 1    
    60   30   92 1    
    61   31   93 1    
    62   31   94 1    
    63   31   95 1    
    64   32   33 am   BACKBONE|DICT|INTERRES
    65   32   96 1    
    66   33   34 2    
    67   33   35 1    
    68   35   36 1    
    69   35   37 1    
    70   35   97 1    
    71   36   98 1    
    72   36   99 1    
    73   36  100 1    
    74   37   38 am   BACKBONE|DICT|INTERRES
    75   37  101 1    
    76   38   39 2    
    77   38   40 1    
    78   40   41 1    
    79   40   42 1    
    80   40  102 1    
    81   41  103 1    
    82   41  104 1    
    83   41  105 1    
    84   42   43 am   BACKBONE|DICT|INTERRES
    85   42  106 1    
    86   43   44 2    
    87   43   45 1    
    88   45   46 1    
    89   45   49 1    
    90   45  107 1    
    91   46   47 1    
    92   46  108 1    
    93   46  109 1    
    94   47   48 1    
    95   48  110 1    
    96   48  111 1    
    97   49   50 am   BACKBONE|DICT|INTERRES
    98   49  112 1    
    99   50   51 2    
   100   50   52 1    
   101   52   53 1    
   102   52   54 1    
   103   52  113 1    
   104   53  114 1    
   105   53  115 1    
   106   53  116 1    
   107   54   55 am   BACKBONE|DICT|INTERRES
   108   54  117 1    
   109   55   56 2    
   110   55   57 1    
   111   57   58 1    
   112   57   59 1    
   113   57  118 1    
   114   58  119 1    
   115   58  120 1    
   116   58  121 1    
   117   59   60 am   BACKBONE|DICT|INTERRES
   118   59  122 1    
   119   60   61 2    
   120   60   62 1    
   121   62   63 1    
   122   62   64 1    
   123   62  123 1    
   124   63  124 1    
   125   63  125 1    
   126   63  126 1    
   127   64   65 am   BACKBONE|DICT|INTERRES
   128   64  127 1    
   129   65   66 2    
@<TRIPOS>SUBSTRUCTURE
     1 UNK         1 GROUP             0       ****    0 ROOT    
