@<TRIPOS>MOLECULE
3R135
127   129    1
SMALL
USER_CHARGES


@<TRIPOS>ATOM
      1 CA        -81.3292   21.3987  -71.9685 C.3       0 UNK        -0.1998 
      2 C         -81.8788   22.8118  -72.0900 C.2       0 UNK         0.4909 
      3 O         -83.0588   22.9880  -72.3978 O.2       0 UNK        -0.5240 
      4 N         -81.0340   23.8228  -71.8470 N.am      1 UNK        -0.4739 
      5 CA        -81.3565   25.2457  -71.9917 C.3       1 UNK         0.0864 
      6 C6        -80.4393   26.1242  -71.0991 C.3       11 UNK        -0.0881 
      7 S7        -81.2995   27.6312  -70.5480 S.3       11 UNK        -0.2682 
      8 C8        -79.9694   28.4818  -69.6345 C.3       11 UNK         0.0289 
      9 C9        -78.8919   29.0837  -70.5330 C.ar      11 UNK        -0.0687 
     10 C10       -79.2337   29.7691  -71.7037 C.ar      11 UNK        -0.0823 
     11 C11       -78.2480   30.3586  -72.4973 C.ar      11 UNK        -0.0830 
     12 C12       -76.9119   30.2837  -72.0987 C.ar      11 UNK        -0.1021 
     13 C13       -76.5455   29.5927  -70.9392 C.ar      11 UNK        -0.0753 
     14 C14       -77.5454   28.9961  -70.1621 C.ar      11 UNK        -0.0933 
     15 C15       -75.0876   29.5092  -70.4894 C.3       11 UNK         0.0166 
     16 S16       -73.9123   29.1664  -71.8448 S.3       11 UNK        -0.2615 
     17 C17       -73.3160   30.8469  -72.2659 C.3       11 UNK        -0.0865 
     18 CA        -71.9831   30.8529  -73.0585 C.3       10 UNK         0.0862 
     19 C         -70.7602   30.4783  -72.1665 C.2       10 UNK         0.5551 
     20 N         -69.9891   29.4413  -72.4733 N.am      10 UNK        -0.7319 
     21 O         -70.4971   31.1590  -71.1779 O.2       10 UNK        -0.5018 
     22 N         -72.1107   30.0907  -74.3077 N.am      10 UNK        -0.4509 
     23 C         -71.3133   30.2058  -75.3760 C.2       10 UNK         0.4899 
     24 O         -70.4415   31.0687  -75.4910 O.2       10 UNK        -0.4839 
     25 CA        -71.5232   29.1596  -76.4894 C.3       9 UNK         0.0222 
     26 CB        -70.3123   29.0379  -77.4375 C.3       9 UNK        -0.1966 
     27 N         -71.9062   27.8410  -75.9668 N.am      9 UNK        -0.4218 
     28 C         -71.2208   27.0753  -75.1024 C.2       9 UNK         0.5020 
     29 O         -70.1323   27.3888  -74.6186 O.2       9 UNK        -0.5274 
     30 CA        -71.8708   25.7508  -74.6703 C.3       8 UNK         0.0270 
     31 CB        -72.6186   25.9372  -73.3408 C.3       8 UNK        -0.1976 
     32 N         -72.7909   25.2131  -75.6749 N.am      8 UNK        -0.4313 
     33 C         -72.4017   24.6212  -76.8127 C.2       8 UNK         0.5041 
     34 O         -71.2251   24.3992  -77.1026 O.2       8 UNK        -0.5577 
     35 CA        -73.5079   24.2273  -77.8056 C.3       7 UNK         0.0284 
     36 CB        -74.1851   22.9165  -77.3765 C.3       7 UNK        -0.1958 
     37 N         -74.5167   25.2758  -77.9801 N.am      7 UNK        -0.4454 
     38 C         -74.2782   26.4767  -78.5270 C.2       7 UNK         0.5089 
     39 O         -73.1819   26.8306  -78.9597 O.2       7 UNK        -0.5125 
     40 CA        -75.4577   27.4590  -78.5935 C.3       6 UNK         0.0408 
     41 CB        -76.3179   27.1923  -79.8389 C.3       6 UNK        -0.1791 
     42 N         -76.2989   27.4158  -77.3974 N.am      6 UNK        -0.4762 
     43 C         -75.9368   27.8819  -76.1929 C.2       6 UNK         0.5007 
     44 O         -74.8350   28.3781  -75.9520 O.2       6 UNK        -0.5032 
     45 CA        -76.9780   27.7246  -75.0607 C.3       5 UNK         0.0783 
     46 C46       -78.1821   28.6866  -75.2545 C.3       11 UNK        -0.0857 
     47 S47       -77.7295   30.4582  -75.2370 S.3       11 UNK        -0.2512 
     48 C48       -78.6314   31.0828  -73.7808 C.3       11 UNK         0.0225 
     49 N         -77.4463   26.3379  -74.9374 N.am      5 UNK        -0.4615 
     50 C         -76.6755   25.2434  -74.8368 C.2       4 UNK         0.5053 
     51 O         -75.4504   25.2644  -74.7390 O.2       4 UNK        -0.5105 
     52 CA        -77.3868   23.8841  -74.9368 C.3       4 UNK         0.0263 
     53 CB        -77.9254   23.4556  -73.5647 C.3       4 UNK        -0.1981 
     54 N         -78.4711   23.8780  -75.9227 N.am      4 UNK        -0.4224 
     55 C         -78.3522   24.1628  -77.2276 C.2       3 UNK         0.4895 
     56 O         -77.2777   24.4223  -77.7696 O.2       3 UNK        -0.5091 
     57 CA        -79.6426   24.2273  -78.0693 C.3       3 UNK         0.0250 
     58 CB        -79.9940   22.8467  -78.6568 C.3       3 UNK        -0.1996 
     59 N         -80.7878   24.8427  -77.3749 N.am      3 UNK        -0.4254 
     60 C         -81.4555   24.3793  -76.3093 C.2       2 UNK         0.5004 
     61 O         -81.2519   23.2768  -75.7942 O.2       2 UNK        -0.5226 
     62 CA        -82.4798   25.3306  -75.6693 C.3       2 UNK         0.0269 
     63 CB        -83.9063   24.9709  -76.1128 C.3       2 UNK        -0.1926 
     64 N         -82.3954   25.2635  -74.2087 N.am      2 UNK        -0.4687 
     65 C         -81.3291   25.6362  -73.4868 C.2       1 UNK         0.5165 
     66 O         -80.3383   26.1872  -73.9756 O.2       1 UNK        -0.5079 
     67 H67       -81.9122   20.8295  -71.2450 H         1 UNK         0.0900 
     68 H68       -81.3902   20.8920  -72.9314 H         1 UNK         0.0900 
     69 H69       -80.2880   21.3915  -71.6468 H         1 UNK         0.0900 
     70 H70       -80.0778   23.6147  -71.5989 H         1 UNK         0.2959 
     71 H71       -82.3838   25.3786  -71.6429 H         1 UNK         0.1079 
     72 H72       -80.1611   25.5789  -70.1956 H         1 UNK         0.0837 
     73 H73       -79.4983   26.3828  -71.5891 H         1 UNK         0.0837 
     74 H74       -80.4135   29.2870  -69.0480 H         1 UNK         0.0685 
     75 H75       -79.5328   27.7838  -68.9183 H         1 UNK         0.0685 
     76 H76       -80.2719   29.8457  -71.9963 H         1 UNK         0.1434 
     77 H77       -76.1610   30.7551  -72.7121 H         1 UNK         0.1329 
     78 H78       -77.2757   28.4760  -69.2530 H         1 UNK         0.1335 
     79 H79       -74.9739   28.7111  -69.7542 H         1 UNK         0.0680 
     80 H80       -74.8179   30.4326  -69.9760 H         1 UNK         0.0680 
     81 H81       -74.0754   31.3539  -72.8598 H         1 UNK         0.1032 
     82 H82       -73.2159   31.4400  -71.3549 H         1 UNK         0.1032 
     83 H83       -71.8050   31.8900  -73.3494 H         1 UNK         0.0461 
     84 H84       -70.1727   28.8673  -73.2891 H         1 UNK         0.3453 
     85 H85       -69.2022   29.2266  -71.8825 H         1 UNK         0.3453 
     86 H86       -72.8029   29.3544  -74.3011 H         1 UNK         0.2984 
     87 H87       -72.3720   29.5081  -77.0795 H         1 UNK         0.0554 
     88 H88       -70.1022   29.9882  -77.9296 H         1 UNK         0.0847 
     89 H89       -70.4977   28.3025  -78.2208 H         1 UNK         0.0847 
     90 H90       -69.4089   28.7403  -76.9042 H         1 UNK         0.0847 
     91 H91       -72.8304   27.5284  -76.2401 H         1 UNK         0.3141 
     92 H92       -71.0693   25.0263  -74.5111 H         1 UNK         0.0743 
     93 H93       -71.9576   26.3338  -72.5687 H         1 UNK         0.0784 
     94 H94       -73.4527   26.6322  -73.4447 H         1 UNK         0.0784 
     95 H95       -73.0179   24.9915  -72.9742 H         1 UNK         0.0784 
     96 H96       -73.7875   25.3053  -75.4765 H         1 UNK         0.3213 
     97 H97       -73.0372   24.0614  -78.7771 H         1 UNK         0.0855 
     98 H98       -74.6417   23.0037  -76.3914 H         1 UNK         0.0814 
     99 H99       -73.4600   22.1032  -77.3270 H         1 UNK         0.0814 
    100 H100      -74.9611   22.6184  -78.0819 H         1 UNK         0.0814 
    101 H101      -75.4709   25.0502  -77.7083 H         1 UNK         0.3105 
    102 H102      -75.0456   28.4670  -78.6784 H         1 UNK         0.0547 
    103 H103      -77.1156   27.9287  -79.9358 H         1 UNK         0.0837 
    104 H104      -75.7152   27.2485  -80.7464 H         1 UNK         0.0837 
    105 H105      -76.7748   26.2023  -79.8137 H         1 UNK         0.0837 
    106 H106      -77.1941   26.9581  -77.4887 H         1 UNK         0.3020 
    107 H107      -76.4789   27.9778  -74.1224 H         1 UNK         0.1245 
    108 H108      -78.9233   28.5044  -74.4750 H         1 UNK         0.0781 
    109 H109      -78.6955   28.4779  -76.1947 H         1 UNK         0.0781 
    110 H110      -79.7026   31.0004  -73.9717 H         1 UNK         0.0836 
    111 H111      -78.4205   32.1465  -73.6636 H         1 UNK         0.0836 
    112 H112      -78.4523   26.2096  -74.9280 H         1 UNK         0.3022 
    113 H113      -76.6550   23.1426  -75.2594 H         1 UNK         0.0747 
    114 H114      -78.4444   22.4984  -73.6185 H         1 UNK         0.0793 
    115 H115      -77.1114   23.3459  -72.8467 H         1 UNK         0.0793 
    116 H116      -78.6148   24.1955  -73.1615 H         1 UNK         0.0793 
    117 H117      -79.4035   23.6472  -75.5894 H         1 UNK         0.3047 
    118 H118      -79.4244   24.8880  -78.9101 H         1 UNK         0.0822 
    119 H119      -80.1842   22.1044  -77.8812 H         1 UNK         0.0807 
    120 H120      -79.1744   22.4678  -79.2689 H         1 UNK         0.0807 
    121 H121      -80.8766   22.8999  -79.2941 H         1 UNK         0.0807 
    122 H122      -81.0306   25.7655  -77.7092 H         1 UNK         0.2946 
    123 H123      -82.2597   26.3563  -75.9743 H         1 UNK         0.1144 
    124 H124      -84.6400   25.6525  -75.6821 H         1 UNK         0.0793 
    125 H125      -84.1759   23.9561  -75.8163 H         1 UNK         0.0793 
    126 H126      -84.0057   25.0313  -77.1975 H         1 UNK         0.0793 
    127 H127      -83.0938   24.6972  -73.7415 H         1 UNK         0.2896 
@<TRIPOS>BOND
     1    1    2 1    
     2    1   67 1    
     3    1   68 1    
     4    1   69 1    
     5    2    3 2    
     6    2    4 am   BACKBONE|DICT|INTERRES
     7    4    5 1    
     8    4   70 1    
     9    5    6 1    
    10    5   65 1    
    11    5   71 1    
    12    6    7 1    
    13    6   72 1    
    14    6   73 1    
    15    7    8 1    
    16    8    9 1    
    17    8   74 1    
    18    8   75 1    
    19    9   10 ar   
    20    9   14 ar   
    21   10   11 ar   
    22   10   76 1    
    23   11   12 ar   
    24   11   48 1    
    25   12   13 ar   
    26   12   77 1    
    27   13   14 ar   
    28   13   15 1    
    29   14   78 1    
    30   15   16 1    
    31   15   79 1    
    32   15   80 1    
    33   16   17 1    
    34   17   18 1    
    35   17   81 1    
    36   17   82 1    
    37   18   19 1    
    38   18   22 1    
    39   18   83 1    
    40   19   20 am   BACKBONE|DICT|INTERRES
    41   19   21 2    
    42   20   84 1    
    43   20   85 1    
    44   22   23 am   BACKBONE|DICT|INTERRES
    45   22   86 1    
    46   23   24 2    
    47   23   25 1    
    48   25   26 1    
    49   25   27 1    
    50   25   87 1    
    51   26   88 1    
    52   26   89 1    
    53   26   90 1    
    54   27   28 am   BACKBONE|DICT|INTERRES
    55   27   91 1    
    56   28   29 2    
    57   28   30 1    
    58   30   31 1    
    59   30   32 1    
    60   30   92 1    
    61   31   93 1    
    62   31   94 1    
    63   31   95 1    
    64   32   33 am   BACKBONE|DICT|INTERRES
    65   32   96 1    
    66   33   34 2    
    67   33   35 1    
    68   35   36 1    
    69   35   37 1    
    70   35   97 1    
    71   36   98 1    
    72   36   99 1    
    73   36  100 1    
    74   37   38 am   BACKBONE|DICT|INTERRES
    75   37  101 1    
    76   38   39 2    
    77   38   40 1    
    78   40   41 1    
    79   40   42 1    
    80   40  102 1    
    81   41  103 1    
    82   41  104 1    
    83   41  105 1    
    84   42   43 am   BACKBONE|DICT|INTERRES
    85   42  106 1    
    86   43   44 2    
    87   43   45 1    
    88   45   46 1    
    89   45   49 1    
    90   45  107 1    
    91   46   47 1    
    92   46  108 1    
    93   46  109 1    
    94   47   48 1    
    95   48  110 1    
    96   48  111 1    
    97   49   50 am   BACKBONE|DICT|INTERRES
    98   49  112 1    
    99   50   51 2    
   100   50   52 1    
   101   52   53 1    
   102   52   54 1    
   103   52  113 1    
   104   53  114 1    
   105   53  115 1    
   106   53  116 1    
   107   54   55 am   BACKBONE|DICT|INTERRES
   108   54  117 1    
   109   55   56 2    
   110   55   57 1    
   111   57   58 1    
   112   57   59 1    
   113   57  118 1    
   114   58  119 1    
   115   58  120 1    
   116   58  121 1    
   117   59   60 am   BACKBONE|DICT|INTERRES
   118   59  122 1    
   119   60   61 2    
   120   60   62 1    
   121   62   63 1    
   122   62   64 1    
   123   62  123 1    
   124   63  124 1    
   125   63  125 1    
   126   63  126 1    
   127   64   65 am   BACKBONE|DICT|INTERRES
   128   64  127 1    
   129   65   66 2    
@<TRIPOS>SUBSTRUCTURE
     1 UNK         1 GROUP             0       ****    0 ROOT    
