@<TRIPOS>MOLECULE
3R135
127   129    1
SMALL
USER_CHARGES


@<TRIPOS>ATOM
      1 CA        -80.7810   25.3833  -71.0371 C.3       0 UNK        -0.1998 
      2 C         -81.8361   26.0668  -71.8888 C.2       0 UNK         0.4909 
      3 O         -83.0244   25.9748  -71.5780 O.2       0 UNK        -0.5240 
      4 N         -81.4107   26.7383  -72.9644 N.am      1 UNK        -0.4739 
      5 CA        -82.2925   27.3955  -73.9374 C.3       1 UNK         0.0864 
      6 C6        -82.2791   28.9426  -73.8057 C.3       11 UNK        -0.0881 
      7 S7        -80.6376   29.7040  -74.0554 S.3       11 UNK        -0.2682 
      8 C8        -80.1495   30.1630  -72.3594 C.3       11 UNK         0.0289 
      9 C9        -78.7009   29.7883  -72.0812 C.ar      11 UNK        -0.0687 
     10 C10       -78.3908   28.8615  -71.0805 C.ar      11 UNK        -0.0823 
     11 C11       -77.0638   28.4881  -70.8447 C.ar      11 UNK        -0.0830 
     12 C12       -76.0463   29.0489  -71.6204 C.ar      11 UNK        -0.1021 
     13 C13       -76.3434   29.9697  -72.6284 C.ar      11 UNK        -0.0753 
     14 C14       -77.6701   30.3524  -72.8394 C.ar      11 UNK        -0.0933 
     15 C15       -75.2420   30.4761  -73.5447 C.3       11 UNK         0.0166 
     16 S16       -73.9211   31.3336  -72.6298 S.3       11 UNK        -0.2615 
     17 C17       -72.6303   31.6176  -73.8989 C.3       11 UNK        -0.0865 
     18 CA        -72.4005   30.4737  -74.9363 C.3       10 UNK         0.0862 
     19 C         -71.2736   30.7914  -75.9623 C.2       10 UNK         0.5551 
     20 N         -70.9248   29.8590  -76.8408 N.am      10 UNK        -0.7319 
     21 O         -70.7105   31.8840  -75.9751 O.2       10 UNK        -0.5018 
     22 N         -72.2504   29.1449  -74.3208 N.am      10 UNK        -0.4509 
     23 C         -71.2909   28.7549  -73.4735 C.2       10 UNK         0.4899 
     24 O         -70.3908   29.4875  -73.0628 O.2       10 UNK        -0.4839 
     25 CA        -71.3174   27.2821  -73.0219 C.3       9 UNK         0.0222 
     26 CB        -72.3468   27.0504  -71.8966 C.3       9 UNK        -0.1966 
     27 N         -71.4840   26.3395  -74.1382 N.am      9 UNK        -0.4218 
     28 C         -72.5695   26.1300  -74.8943 C.2       9 UNK         0.5020 
     29 O         -73.6790   26.6332  -74.6790 O.2       9 UNK        -0.5274 
     30 CA        -72.3518   25.2566  -76.1406 C.3       8 UNK         0.0270 
     31 CB        -72.4425   23.7628  -75.8082 C.3       8 UNK        -0.1976 
     32 N         -73.3503   25.5921  -77.1510 N.am      8 UNK        -0.4313 
     33 C         -73.3055   26.7104  -77.8871 C.2       8 UNK         0.5041 
     34 O         -72.3307   27.4627  -77.9417 O.2       8 UNK        -0.5577 
     35 CA        -74.6015   27.0880  -78.6100 C.3       7 UNK         0.0284 
     36 CB        -74.9514   26.0798  -79.7183 C.3       7 UNK        -0.1958 
     37 N         -75.6903   27.1635  -77.6367 N.am      7 UNK        -0.4454 
     38 C         -75.9536   28.2389  -76.8804 C.2       7 UNK         0.5089 
     39 O         -75.3579   29.3123  -76.9650 O.2       7 UNK        -0.5125 
     40 CA        -77.0667   28.0721  -75.8446 C.3       6 UNK         0.0408 
     41 CB        -78.4034   27.8030  -76.5624 C.3       6 UNK        -0.1791 
     42 N         -76.6671   27.0156  -74.9115 N.am      6 UNK        -0.4762 
     43 C         -77.3848   26.4673  -73.9212 C.2       6 UNK         0.5007 
     44 O         -78.5834   26.6727  -73.7168 O.2       6 UNK        -0.5032 
     45 CA        -76.6336   25.4373  -73.0653 C.3       5 UNK         0.0783 
     46 C46       -77.1074   25.3308  -71.5859 C.3       11 UNK        -0.0857 
     47 S47       -75.8748   26.0006  -70.4210 S.3       11 UNK        -0.2512 
     48 C48       -76.7292   27.4709  -69.7618 C.3       11 UNK         0.0225 
     49 N         -76.7303   24.1721  -73.7812 N.am      5 UNK        -0.4615 
     50 C         -75.7646   23.2496  -73.7968 C.2       4 UNK         0.5053 
     51 O         -74.7569   23.3038  -73.0919 O.2       4 UNK        -0.5105 
     52 CA        -75.9252   22.0652  -74.7665 C.3       4 UNK         0.0263 
     53 CB        -76.4179   20.8231  -74.0061 C.3       4 UNK        -0.1981 
     54 N         -76.8164   22.3055  -75.9042 N.am      4 UNK        -0.4224 
     55 C         -76.7254   23.2677  -76.8353 C.2       3 UNK         0.4895 
     56 O         -75.8684   24.1550  -76.8530 O.2       3 UNK        -0.5091 
     57 CA        -77.7911   23.2288  -77.9476 C.3       3 UNK         0.0250 
     58 CB        -78.3255   21.8068  -78.2304 C.3       3 UNK        -0.1996 
     59 N         -78.9227   24.1407  -77.7356 N.am      3 UNK        -0.4254 
     60 C         -79.6473   24.3315  -76.6214 C.2       2 UNK         0.5004 
     61 O         -79.3921   23.8452  -75.5158 O.2       2 UNK        -0.5226 
     62 CA        -80.9074   25.1869  -76.7960 C.3       2 UNK         0.0269 
     63 CB        -82.0785   24.3218  -77.3006 C.3       2 UNK        -0.1926 
     64 N         -81.2557   25.8077  -75.5216 N.am      2 UNK        -0.4687 
     65 C         -82.0318   26.8902  -75.3732 C.2       1 UNK         0.5165 
     66 O         -82.5571   27.4726  -76.3241 O.2       1 UNK        -0.5079 
     67 H67       -80.2078   26.1210  -70.4774 H         1 UNK         0.0900 
     68 H68       -80.1051   24.8022  -71.6636 H         1 UNK         0.0900 
     69 H69       -81.2432   24.7012  -70.3238 H         1 UNK         0.0900 
     70 H70       -80.4144   26.7992  -73.1744 H         1 UNK         0.2959 
     71 H71       -83.3226   27.0845  -73.7512 H         1 UNK         0.1079 
     72 H72       -82.9688   29.3894  -74.5241 H         1 UNK         0.0837 
     73 H73       -82.6721   29.2262  -72.8288 H         1 UNK         0.0837 
     74 H74       -80.8059   29.6806  -71.6342 H         1 UNK         0.0685 
     75 H75       -80.2796   31.2378  -72.2278 H         1 UNK         0.0685 
     76 H76       -79.1849   28.4223  -70.4933 H         1 UNK         0.1434 
     77 H77       -75.0209   28.7496  -71.4558 H         1 UNK         0.1329 
     78 H78       -77.9115   31.0536  -73.6265 H         1 UNK         0.1335 
     79 H79       -74.8464   29.6060  -74.0656 H         1 UNK         0.0680 
     80 H80       -75.6394   31.1449  -74.3098 H         1 UNK         0.0680 
     81 H81       -72.8875   32.5394  -74.4237 H         1 UNK         0.1032 
     82 H82       -71.6995   31.8336  -73.3716 H         1 UNK         0.1032 
     83 H83       -73.2993   30.4177  -75.5492 H         1 UNK         0.0461 
     84 H84       -71.4297   28.9824  -76.9170 H         1 UNK         0.3453 
     85 H85       -70.1947   30.0651  -77.5033 H         1 UNK         0.3453 
     86 H86       -72.9299   28.4440  -74.5984 H         1 UNK         0.2984 
     87 H87       -70.3327   27.0651  -72.6047 H         1 UNK         0.0554 
     88 H88       -72.3296   26.0179  -71.5481 H         1 UNK         0.0847 
     89 H89       -73.3641   27.2752  -72.2149 H         1 UNK         0.0847 
     90 H90       -72.1327   27.6880  -71.0380 H         1 UNK         0.0847 
     91 H91       -70.6294   25.8823  -74.4259 H         1 UNK         0.3141 
     92 H92       -71.3580   25.4616  -76.5451 H         1 UNK         0.0743 
     93 H93       -73.4283   23.5078  -75.4308 H         1 UNK         0.0784 
     94 H94       -72.2516   23.1477  -76.6877 H         1 UNK         0.0784 
     95 H95       -71.7157   23.4796  -75.0459 H         1 UNK         0.0784 
     96 H96       -74.2248   25.0740  -77.1052 H         1 UNK         0.3213 
     97 H97       -74.4605   28.0668  -79.0743 H         1 UNK         0.0855 
     98 H98       -75.1106   25.0741  -79.3287 H         1 UNK         0.0814 
     99 H99       -74.1483   26.0198  -80.4539 H         1 UNK         0.0814 
    100 H100      -75.8550   26.3776  -80.2503 H         1 UNK         0.0814 
    101 H101      -76.1815   26.3013  -77.4367 H         1 UNK         0.3105 
    102 H102      -77.1576   29.0020  -75.2838 H         1 UNK         0.0547 
    103 H103      -78.6101   28.5797  -77.2997 H         1 UNK         0.0837 
    104 H104      -78.3939   26.8522  -77.0890 H         1 UNK         0.0837 
    105 H105      -79.2425   27.8052  -75.8712 H         1 UNK         0.0837 
    106 H106      -75.6829   26.7601  -74.9703 H         1 UNK         0.3020 
    107 H107      -75.5843   25.7435  -73.0701 H         1 UNK         0.1245 
    108 H108      -77.2773   24.2901  -71.3058 H         1 UNK         0.0781 
    109 H109      -78.0573   25.8324  -71.4166 H         1 UNK         0.0781 
    110 H110      -76.0888   27.9457  -69.0173 H         1 UNK         0.0836 
    111 H111      -77.6282   27.1506  -69.2330 H         1 UNK         0.0836 
    112 H112      -77.5350   24.0640  -74.3911 H         1 UNK         0.3022 
    113 H113      -74.9397   21.8376  -75.1746 H         1 UNK         0.0747 
    114 H114      -76.4393   19.9436  -74.6500 H         1 UNK         0.0793 
    115 H115      -75.7595   20.5909  -73.1676 H         1 UNK         0.0793 
    116 H116      -77.4204   20.9703  -73.6019 H         1 UNK         0.0793 
    117 H117      -77.6011   21.6753  -75.9825 H         1 UNK         0.3047 
    118 H118      -77.2859   23.5699  -78.8527 H         1 UNK         0.0822 
    119 H119      -77.5098   21.0960  -78.3722 H         1 UNK         0.0807 
    120 H120      -78.9205   21.7908  -79.1438 H         1 UNK         0.0807 
    121 H121      -78.9594   21.4339  -77.4250 H         1 UNK         0.0807 
    122 H122      -79.2285   24.6199  -78.5712 H         1 UNK         0.2946 
    123 H123      -80.6985   25.9738  -77.5243 H         1 UNK         0.1144 
    124 H124      -81.8297   23.8316  -78.2427 H         1 UNK         0.0793 
    125 H125      -82.9719   24.9207  -77.4779 H         1 UNK         0.0793 
    126 H126      -82.3365   23.5406  -76.5843 H         1 UNK         0.0793 
    127 H127      -80.8126   25.3912  -74.7116 H         1 UNK         0.2896 
@<TRIPOS>BOND
     1    1    2 1    
     2    1   67 1    
     3    1   68 1    
     4    1   69 1    
     5    2    3 2    
     6    2    4 am   BACKBONE|DICT|INTERRES
     7    4    5 1    
     8    4   70 1    
     9    5    6 1    
    10    5   65 1    
    11    5   71 1    
    12    6    7 1    
    13    6   72 1    
    14    6   73 1    
    15    7    8 1    
    16    8    9 1    
    17    8   74 1    
    18    8   75 1    
    19    9   10 ar   
    20    9   14 ar   
    21   10   11 ar   
    22   10   76 1    
    23   11   12 ar   
    24   11   48 1    
    25   12   13 ar   
    26   12   77 1    
    27   13   14 ar   
    28   13   15 1    
    29   14   78 1    
    30   15   16 1    
    31   15   79 1    
    32   15   80 1    
    33   16   17 1    
    34   17   18 1    
    35   17   81 1    
    36   17   82 1    
    37   18   19 1    
    38   18   22 1    
    39   18   83 1    
    40   19   20 am   BACKBONE|DICT|INTERRES
    41   19   21 2    
    42   20   84 1    
    43   20   85 1    
    44   22   23 am   BACKBONE|DICT|INTERRES
    45   22   86 1    
    46   23   24 2    
    47   23   25 1    
    48   25   26 1    
    49   25   27 1    
    50   25   87 1    
    51   26   88 1    
    52   26   89 1    
    53   26   90 1    
    54   27   28 am   BACKBONE|DICT|INTERRES
    55   27   91 1    
    56   28   29 2    
    57   28   30 1    
    58   30   31 1    
    59   30   32 1    
    60   30   92 1    
    61   31   93 1    
    62   31   94 1    
    63   31   95 1    
    64   32   33 am   BACKBONE|DICT|INTERRES
    65   32   96 1    
    66   33   34 2    
    67   33   35 1    
    68   35   36 1    
    69   35   37 1    
    70   35   97 1    
    71   36   98 1    
    72   36   99 1    
    73   36  100 1    
    74   37   38 am   BACKBONE|DICT|INTERRES
    75   37  101 1    
    76   38   39 2    
    77   38   40 1    
    78   40   41 1    
    79   40   42 1    
    80   40  102 1    
    81   41  103 1    
    82   41  104 1    
    83   41  105 1    
    84   42   43 am   BACKBONE|DICT|INTERRES
    85   42  106 1    
    86   43   44 2    
    87   43   45 1    
    88   45   46 1    
    89   45   49 1    
    90   45  107 1    
    91   46   47 1    
    92   46  108 1    
    93   46  109 1    
    94   47   48 1    
    95   48  110 1    
    96   48  111 1    
    97   49   50 am   BACKBONE|DICT|INTERRES
    98   49  112 1    
    99   50   51 2    
   100   50   52 1    
   101   52   53 1    
   102   52   54 1    
   103   52  113 1    
   104   53  114 1    
   105   53  115 1    
   106   53  116 1    
   107   54   55 am   BACKBONE|DICT|INTERRES
   108   54  117 1    
   109   55   56 2    
   110   55   57 1    
   111   57   58 1    
   112   57   59 1    
   113   57  118 1    
   114   58  119 1    
   115   58  120 1    
   116   58  121 1    
   117   59   60 am   BACKBONE|DICT|INTERRES
   118   59  122 1    
   119   60   61 2    
   120   60   62 1    
   121   62   63 1    
   122   62   64 1    
   123   62  123 1    
   124   63  124 1    
   125   63  125 1    
   126   63  126 1    
   127   64   65 am   BACKBONE|DICT|INTERRES
   128   64  127 1    
   129   65   66 2    
@<TRIPOS>SUBSTRUCTURE
     1 UNK         1 GROUP             0       ****    0 ROOT    
