@<TRIPOS>MOLECULE
3R135
127   129    1
SMALL
USER_CHARGES


@<TRIPOS>ATOM
      1 CA        -79.9914   22.2268  -71.5200 C.3       0 UNK        -0.1998 
      2 C         -80.3128   23.6285  -72.0144 C.2       0 UNK         0.4909 
      3 O         -79.4792   24.2405  -72.6833 O.2       0 UNK        -0.5240 
      4 N         -81.5154   24.1338  -71.6975 N.am      1 UNK        -0.4739 
      5 CA        -82.0298   25.4555  -72.0840 C.3       1 UNK         0.0864 
      6 C6        -81.3023   26.5991  -71.3202 C.3       11 UNK        -0.0881 
      7 S7        -82.2240   28.1737  -71.3624 S.3       11 UNK        -0.2682 
      8 C8        -81.2027   29.2191  -70.2815 C.3       11 UNK         0.0289 
      9 C9        -79.7903   29.4138  -70.8175 C.ar      11 UNK        -0.0687 
     10 C10       -79.5624   30.2027  -71.9487 C.ar      11 UNK        -0.0823 
     11 C11       -78.2610   30.4380  -72.4056 C.ar      11 UNK        -0.0830 
     12 C12       -77.1829   29.8802  -71.7063 C.ar      11 UNK        -0.1021 
     13 C13       -77.3960   29.0701  -70.5838 C.ar      11 UNK        -0.0753 
     14 C14       -78.7052   28.8397  -70.1513 C.ar      11 UNK        -0.0933 
     15 C15       -76.2356   28.4878  -69.7794 C.3       11 UNK         0.0166 
     16 S16       -74.9967   27.6090  -70.7882 S.3       11 UNK        -0.2615 
     17 C17       -73.7758   28.9267  -71.1239 C.3       11 UNK        -0.0865 
     18 CA        -73.4272   29.0336  -72.6372 C.3       10 UNK         0.0862 
     19 C         -72.5850   30.2913  -73.0194 C.2       10 UNK         0.5551 
     20 N         -72.7586   31.4170  -72.3387 N.am      10 UNK        -0.7319 
     21 O         -71.8094   30.2791  -73.9736 O.2       10 UNK        -0.5018 
     22 N         -72.8655   27.7864  -73.1807 N.am      10 UNK        -0.4509 
     23 C         -71.6896   27.2280  -72.8562 C.2       10 UNK         0.4899 
     24 O         -70.9516   27.6259  -71.9544 O.2       10 UNK        -0.4839 
     25 CA        -71.2445   26.0391  -73.7236 C.3       9 UNK         0.0222 
     26 CB        -71.8817   24.7275  -73.2358 C.3       9 UNK        -0.1966 
     27 N         -71.5994   26.2770  -75.1236 N.am      9 UNK        -0.4218 
     28 C         -70.8858   27.0446  -75.9602 C.2       9 UNK         0.5020 
     29 O         -69.7538   27.4598  -75.7032 O.2       9 UNK        -0.5274 
     30 CA        -71.5618   27.4518  -77.2847 C.3       8 UNK         0.0270 
     31 CB        -70.5517   27.7716  -78.4081 C.3       8 UNK        -0.1976 
     32 N         -72.5872   26.5069  -77.7412 N.am      8 UNK        -0.4313 
     33 C         -72.4108   25.2378  -78.1408 C.2       8 UNK         0.5041 
     34 O         -71.3115   24.6845  -78.1944 O.2       8 UNK        -0.5577 
     35 CA        -73.6636   24.4263  -78.5280 C.3       7 UNK         0.0284 
     36 CB        -73.8595   23.2546  -77.5508 C.3       7 UNK        -0.1958 
     37 N         -74.8979   25.2167  -78.5756 N.am      7 UNK        -0.4454 
     38 C         -75.2117   26.1046  -79.5291 C.2       7 UNK         0.5089 
     39 O         -74.5196   26.3123  -80.5257 O.2       7 UNK        -0.5125 
     40 CA        -76.4887   26.9359  -79.3087 C.3       6 UNK         0.0408 
     41 CB        -77.7208   26.1840  -79.8354 C.3       6 UNK        -0.1791 
     42 N         -76.7072   27.3084  -77.9066 N.am      6 UNK        -0.4762 
     43 C         -75.8869   28.0689  -77.1657 C.2       6 UNK         0.5007 
     44 O         -74.8408   28.5578  -77.5919 O.2       6 UNK        -0.5032 
     45 CA        -76.2574   28.2456  -75.6799 C.3       5 UNK         0.0783 
     46 C46       -77.3812   29.2946  -75.4537 C.3       11 UNK        -0.0857 
     47 S47       -76.7123   30.8359  -74.7465 S.3       11 UNK        -0.2512 
     48 C48       -78.0466   31.3542  -73.6111 C.3       11 UNK         0.0225 
     49 N         -76.5750   26.9557  -75.0705 N.am      5 UNK        -0.4615 
     50 C         -75.6737   26.0023  -74.8090 C.2       4 UNK         0.5053 
     51 O         -74.4646   26.1356  -75.0048 O.2       4 UNK        -0.5105 
     52 CA        -76.2154   24.6717  -74.2628 C.3       4 UNK         0.0263 
     53 CB        -76.2512   24.6991  -72.7277 C.3       4 UNK        -0.1981 
     54 N         -77.5481   24.3437  -74.7815 N.am      4 UNK        -0.4224 
     55 C         -77.7992   24.0610  -76.0686 C.2       3 UNK         0.4895 
     56 O         -76.9323   24.0278  -76.9404 O.2       3 UNK        -0.5091 
     57 CA        -79.2626   23.8206  -76.4678 C.3       3 UNK         0.0250 
     58 CB        -79.7301   22.4279  -76.0166 C.3       3 UNK        -0.1996 
     59 N         -80.1845   24.8364  -75.9578 N.am      3 UNK        -0.4254 
     60 C         -80.1208   26.1546  -76.1857 C.2       2 UNK         0.5004 
     61 O         -79.2342   26.6908  -76.8479 O.2       2 UNK        -0.5226 
     62 CA        -81.2044   27.0405  -75.5467 C.3       2 UNK         0.0269 
     63 CB        -82.4826   27.0698  -76.4063 C.3       2 UNK        -0.1926 
     64 N         -81.4904   26.7095  -74.1441 N.am      2 UNK        -0.4687 
     65 C         -82.0446   25.6037  -73.6256 C.2       1 UNK         0.5165 
     66 O         -82.5112   24.6894  -74.3102 O.2       1 UNK        -0.5079 
     67 H67       -79.0954   22.2464  -70.9003 H         1 UNK         0.0900 
     68 H68       -80.8044   21.8054  -70.9291 H         1 UNK         0.0900 
     69 H69       -79.8064   21.5650  -72.3654 H         1 UNK         0.0900 
     70 H70       -82.1643   23.5587  -71.1783 H         1 UNK         0.2959 
     71 H71       -83.0778   25.4644  -71.7795 H         1 UNK         0.1079 
     72 H72       -81.1898   26.3206  -70.2711 H         1 UNK         0.0837 
     73 H73       -80.2869   26.7438  -71.6951 H         1 UNK         0.0837 
     74 H74       -81.6831   30.1932  -70.1798 H         1 UNK         0.0685 
     75 H75       -81.1840   28.7842  -69.2809 H         1 UNK         0.0685 
     76 H76       -80.4043   30.6508  -72.4591 H         1 UNK         0.1434 
     77 H77       -76.1764   30.0890  -72.0326 H         1 UNK         0.1329 
     78 H78       -78.8807   28.2343  -69.2725 H         1 UNK         0.1335 
     79 H79       -76.6139   27.7721  -69.0478 H         1 UNK         0.0680 
     80 H80       -75.7629   29.2802  -69.1982 H         1 UNK         0.0680 
     81 H81       -74.1750   29.8695  -70.7515 H         1 UNK         0.1032 
     82 H82       -72.8804   28.7336  -70.5318 H         1 UNK         0.1032 
     83 H83       -74.3645   29.1710  -73.1739 H         1 UNK         0.0461 
     84 H84       -73.4064   31.4801  -71.5708 H         1 UNK         0.3453 
     85 H85       -72.2267   32.2300  -72.6077 H         1 UNK         0.3453 
     86 H86       -73.4045   27.3487  -73.9196 H         1 UNK         0.2984 
     87 H87       -70.1603   25.9391  -73.6387 H         1 UNK         0.0554 
     88 H88       -71.5987   24.5205  -72.2029 H         1 UNK         0.0847 
     89 H89       -71.5540   23.8803  -73.8383 H         1 UNK         0.0847 
     90 H90       -72.9702   24.7621  -73.2720 H         1 UNK         0.0847 
     91 H91       -72.5446   26.0220  -75.3945 H         1 UNK         0.3141 
     92 H92       -72.0965   28.3763  -77.0618 H         1 UNK         0.0743 
     93 H93       -69.8978   28.5965  -78.1227 H         1 UNK         0.0784 
     94 H94       -69.9138   26.9173  -78.6360 H         1 UNK         0.0784 
     95 H95       -71.0603   28.0665  -79.3260 H         1 UNK         0.0784 
     96 H96       -73.5326   26.8734  -77.7345 H         1 UNK         0.3213 
     97 H97       -73.4847   24.0147  -79.5236 H         1 UNK         0.0855 
     98 H98       -74.0385   23.6065  -76.5345 H         1 UNK         0.0814 
     99 H99       -72.9780   22.6127  -77.5232 H         1 UNK         0.0814 
    100 H100      -74.7033   22.6295  -77.8436 H         1 UNK         0.0814 
    101 H101      -75.5780   25.0398  -77.8395 H         1 UNK         0.3105 
    102 H102      -76.3841   27.8603  -79.8803 H         1 UNK         0.0547 
    103 H103      -78.6211   26.7936  -79.7561 H         1 UNK         0.0837 
    104 H104      -77.5986   25.9199  -80.8866 H         1 UNK         0.0837 
    105 H105      -77.8951   25.2597  -79.2837 H         1 UNK         0.0837 
    106 H106      -77.5676   26.9670  -77.4779 H         1 UNK         0.3020 
    107 H107      -75.3456   28.5953  -75.1927 H         1 UNK         0.1245 
    108 H108      -78.1381   28.9060  -74.7706 H         1 UNK         0.0781 
    109 H109      -77.9217   29.5344  -76.3718 H         1 UNK         0.0781 
    110 H110      -78.9677   31.4494  -74.1885 H         1 UNK         0.0836 
    111 H111      -77.8139   32.3536  -73.2415 H         1 UNK         0.0836 
    112 H112      -77.5513   26.7466  -74.9258 H         1 UNK         0.3022 
    113 H113      -75.5288   23.8822  -74.5737 H         1 UNK         0.0747 
    114 H114      -75.2623   24.9032  -72.3158 H         1 UNK         0.0793 
    115 H115      -76.9254   25.4711  -72.3536 H         1 UNK         0.0793 
    116 H116      -76.5813   23.7430  -72.3213 H         1 UNK         0.0793 
    117 H117      -78.3151   24.3426  -74.1090 H         1 UNK         0.3047 
    118 H118      -79.3131   23.8594  -77.5578 H         1 UNK         0.0822 
    119 H119      -79.0656   21.6504  -76.3962 H         1 UNK         0.0807 
    120 H120      -80.7313   22.2069  -76.3872 H         1 UNK         0.0807 
    121 H121      -79.7493   22.3402  -74.9298 H         1 UNK         0.0807 
    122 H122      -80.9583   24.5106  -75.3853 H         1 UNK         0.2946 
    123 H123      -80.8012   28.0548  -75.5328 H         1 UNK         0.1144 
    124 H124      -83.2305   27.7390  -75.9809 H         1 UNK         0.0793 
    125 H125      -82.9344   26.0829  -76.5082 H         1 UNK         0.0793 
    126 H126      -82.2626   27.4277  -77.4130 H         1 UNK         0.0793 
    127 H127      -81.1606   27.3914  -73.4729 H         1 UNK         0.2896 
@<TRIPOS>BOND
     1    1    2 1    
     2    1   67 1    
     3    1   68 1    
     4    1   69 1    
     5    2    3 2    
     6    2    4 am   BACKBONE|DICT|INTERRES
     7    4    5 1    
     8    4   70 1    
     9    5    6 1    
    10    5   65 1    
    11    5   71 1    
    12    6    7 1    
    13    6   72 1    
    14    6   73 1    
    15    7    8 1    
    16    8    9 1    
    17    8   74 1    
    18    8   75 1    
    19    9   10 ar   
    20    9   14 ar   
    21   10   11 ar   
    22   10   76 1    
    23   11   12 ar   
    24   11   48 1    
    25   12   13 ar   
    26   12   77 1    
    27   13   14 ar   
    28   13   15 1    
    29   14   78 1    
    30   15   16 1    
    31   15   79 1    
    32   15   80 1    
    33   16   17 1    
    34   17   18 1    
    35   17   81 1    
    36   17   82 1    
    37   18   19 1    
    38   18   22 1    
    39   18   83 1    
    40   19   20 am   BACKBONE|DICT|INTERRES
    41   19   21 2    
    42   20   84 1    
    43   20   85 1    
    44   22   23 am   BACKBONE|DICT|INTERRES
    45   22   86 1    
    46   23   24 2    
    47   23   25 1    
    48   25   26 1    
    49   25   27 1    
    50   25   87 1    
    51   26   88 1    
    52   26   89 1    
    53   26   90 1    
    54   27   28 am   BACKBONE|DICT|INTERRES
    55   27   91 1    
    56   28   29 2    
    57   28   30 1    
    58   30   31 1    
    59   30   32 1    
    60   30   92 1    
    61   31   93 1    
    62   31   94 1    
    63   31   95 1    
    64   32   33 am   BACKBONE|DICT|INTERRES
    65   32   96 1    
    66   33   34 2    
    67   33   35 1    
    68   35   36 1    
    69   35   37 1    
    70   35   97 1    
    71   36   98 1    
    72   36   99 1    
    73   36  100 1    
    74   37   38 am   BACKBONE|DICT|INTERRES
    75   37  101 1    
    76   38   39 2    
    77   38   40 1    
    78   40   41 1    
    79   40   42 1    
    80   40  102 1    
    81   41  103 1    
    82   41  104 1    
    83   41  105 1    
    84   42   43 am   BACKBONE|DICT|INTERRES
    85   42  106 1    
    86   43   44 2    
    87   43   45 1    
    88   45   46 1    
    89   45   49 1    
    90   45  107 1    
    91   46   47 1    
    92   46  108 1    
    93   46  109 1    
    94   47   48 1    
    95   48  110 1    
    96   48  111 1    
    97   49   50 am   BACKBONE|DICT|INTERRES
    98   49  112 1    
    99   50   51 2    
   100   50   52 1    
   101   52   53 1    
   102   52   54 1    
   103   52  113 1    
   104   53  114 1    
   105   53  115 1    
   106   53  116 1    
   107   54   55 am   BACKBONE|DICT|INTERRES
   108   54  117 1    
   109   55   56 2    
   110   55   57 1    
   111   57   58 1    
   112   57   59 1    
   113   57  118 1    
   114   58  119 1    
   115   58  120 1    
   116   58  121 1    
   117   59   60 am   BACKBONE|DICT|INTERRES
   118   59  122 1    
   119   60   61 2    
   120   60   62 1    
   121   62   63 1    
   122   62   64 1    
   123   62  123 1    
   124   63  124 1    
   125   63  125 1    
   126   63  126 1    
   127   64   65 am   BACKBONE|DICT|INTERRES
   128   64  127 1    
   129   65   66 2    
@<TRIPOS>SUBSTRUCTURE
     1 UNK         1 GROUP             0       ****    0 ROOT    
