@<TRIPOS>MOLECULE
3R135
127   129    1
SMALL
USER_CHARGES


@<TRIPOS>ATOM
      1 CA        -78.2417   19.7804  -72.9571 C.3       0 UNK        -0.1998 
      2 C         -78.9014   21.0149  -72.3607 C.2       0 UNK         0.4909 
      3 O         -79.8867   20.8919  -71.6319 O.2       0 UNK        -0.5240 
      4 N         -78.3595   22.2025  -72.6583 N.am      1 UNK        -0.4739 
      5 CA        -78.9048   23.5004  -72.2445 C.3       1 UNK         0.0864 
      6 C6        -77.8533   24.6349  -72.4157 C.3       11 UNK        -0.0881 
      7 S7        -77.3647   25.3773  -70.8204 S.3       11 UNK        -0.2682 
      8 C8        -78.4931   26.8001  -70.6584 C.3       11 UNK         0.0289 
      9 C9        -78.1755   27.9177  -71.6419 C.ar      11 UNK        -0.0687 
     10 C10       -78.8695   28.0043  -72.8485 C.ar      11 UNK        -0.0823 
     11 C11       -78.6043   29.0233  -73.7656 C.ar      11 UNK        -0.0830 
     12 C12       -77.6209   29.9740  -73.4566 C.ar      11 UNK        -0.1021 
     13 C13       -76.9162   29.9045  -72.2483 C.ar      11 UNK        -0.0753 
     14 C14       -77.2093   28.8800  -71.3403 C.ar      11 UNK        -0.0933 
     15 C15       -75.8446   30.9394  -71.9225 C.3       11 UNK         0.0166 
     16 S16       -74.2454   30.1512  -71.5576 S.3       11 UNK        -0.2615 
     17 C17       -73.0792   31.5454  -71.6969 C.3       11 UNK        -0.0865 
     18 CA        -72.4999   31.7149  -73.1270 C.3       10 UNK         0.0862 
     19 C         -71.4415   32.8519  -73.1463 C.2       10 UNK         0.5551 
     20 N         -71.8549   34.0795  -73.4301 N.am      10 UNK        -0.7319 
     21 O         -70.2652   32.6383  -72.8583 O.2       10 UNK        -0.5018 
     22 N         -72.0023   30.4417  -73.6716 N.am      10 UNK        -0.4509 
     23 C         -71.5560   30.2402  -74.9164 C.2       10 UNK         0.4899 
     24 O         -71.4699   31.1258  -75.7678 O.2       10 UNK        -0.4839 
     25 CA        -71.1828   28.8000  -75.3058 C.3       9 UNK         0.0222 
     26 CB        -69.7426   28.4469  -74.8861 C.3       9 UNK        -0.1966 
     27 N         -72.1621   27.7989  -74.8623 N.am      9 UNK        -0.4218 
     28 C         -72.3968   27.3111  -73.6354 C.2       9 UNK         0.5020 
     29 O         -71.7712   27.6490  -72.6298 O.2       9 UNK        -0.5274 
     30 CA        -73.5418   26.2872  -73.5011 C.3       8 UNK         0.0270 
     31 CB        -74.8482   26.9943  -73.1169 C.3       8 UNK        -0.1976 
     32 N         -73.7741   25.5035  -74.7164 N.am      8 UNK        -0.4313 
     33 C         -72.9327   24.5825  -75.2070 C.2       8 UNK         0.5041 
     34 O         -71.8736   24.2585  -74.6686 O.2       8 UNK        -0.5577 
     35 CA        -73.3400   23.9207  -76.5320 C.3       7 UNK         0.0284 
     36 CB        -74.3118   22.7563  -76.2797 C.3       7 UNK        -0.1958 
     37 N         -73.9470   24.8899  -77.4477 N.am      7 UNK        -0.4454 
     38 C         -73.2480   25.7743  -78.1747 C.2       7 UNK         0.5089 
     39 O         -72.0183   25.8081  -78.2165 O.2       7 UNK        -0.5125 
     40 CA        -74.0530   26.8122  -78.9785 C.3       6 UNK         0.0408 
     41 CB        -74.3522   26.2838  -80.3901 C.3       6 UNK        -0.1791 
     42 N         -75.3069   27.2070  -78.3300 N.am      6 UNK        -0.4762 
     43 C         -75.3912   27.8724  -77.1671 C.2       6 UNK         0.5007 
     44 O         -74.4100   28.2539  -76.5331 O.2       6 UNK        -0.5032 
     45 CA        -76.8049   28.1153  -76.5954 C.3       5 UNK         0.0783 
     46 C46       -77.3247   29.4932  -77.0803 C.3       11 UNK        -0.0857 
     47 S47       -78.8786   30.1672  -76.3816 S.3       11 UNK        -0.2512 
     48 C48       -79.4397   29.0519  -75.0467 C.3       11 UNK         0.0225 
     49 N         -77.7139   27.0062  -76.9155 N.am      5 UNK        -0.4615 
     50 C         -77.5432   25.7429  -76.5035 C.2       4 UNK         0.5053 
     51 O         -76.6063   25.3894  -75.7829 O.2       4 UNK        -0.5105 
     52 CA        -78.5582   24.7076  -77.0209 C.3       4 UNK         0.0263 
     53 CB        -78.1819   23.2670  -76.6281 C.3       4 UNK        -0.1981 
     54 N         -79.9260   24.9886  -76.5756 N.am      4 UNK        -0.4224 
     55 C         -80.7444   25.8923  -77.1364 C.2       3 UNK         0.4895 
     56 O         -80.3858   26.6541  -78.0360 O.2       3 UNK        -0.5091 
     57 CA        -82.2028   25.9633  -76.6465 C.3       3 UNK         0.0250 
     58 CB        -83.1430   25.3353  -77.6886 C.3       3 UNK        -0.1996 
     59 N         -82.4154   25.2987  -75.3596 N.am      3 UNK        -0.4254 
     60 C         -82.2373   25.8795  -74.1668 C.2       2 UNK         0.5004 
     61 O         -81.9255   27.0606  -74.0234 O.2       2 UNK        -0.5226 
     62 CA        -82.4187   24.9988  -72.9154 C.3       2 UNK         0.0269 
     63 CB        -83.3801   23.8064  -73.1265 C.3       2 UNK        -0.1926 
     64 N         -81.1300   24.5424  -72.3752 N.am      2 UNK        -0.4687 
     65 C         -80.2039   23.8151  -73.0180 C.2       1 UNK         0.5165 
     66 O         -80.3298   23.4262  -74.1821 O.2       1 UNK        -0.5079 
     67 H67       -78.9541   19.2391  -73.5790 H         1 UNK         0.0900 
     68 H68       -77.3798   20.0357  -73.5735 H         1 UNK         0.0900 
     69 H69       -77.9057   19.1137  -72.1635 H         1 UNK         0.0900 
     70 H70       -77.5652   22.2390  -73.2797 H         1 UNK         0.2959 
     71 H71       -79.1756   23.4068  -71.1902 H         1 UNK         0.1079 
     72 H72       -78.1775   25.4152  -73.1042 H         1 UNK         0.0837 
     73 H73       -76.9401   24.2500  -72.8731 H         1 UNK         0.0837 
     74 H74       -79.5238   26.4654  -70.7791 H         1 UNK         0.0685 
     75 H75       -78.4206   27.1850  -69.6401 H         1 UNK         0.0685 
     76 H76       -79.6293   27.2706  -73.0727 H         1 UNK         0.1434 
     77 H77       -77.4029   30.7755  -74.1476 H         1 UNK         0.1329 
     78 H78       -76.6700   28.8217  -70.4048 H         1 UNK         0.1335 
     79 H79       -75.7168   31.6318  -72.7560 H         1 UNK         0.0680 
     80 H80       -76.1608   31.5332  -71.0640 H         1 UNK         0.0680 
     81 H81       -73.5744   32.4617  -71.3695 H         1 UNK         0.1032 
     82 H82       -72.2729   31.3680  -70.9822 H         1 UNK         0.1032 
     83 H83       -73.3215   32.0166  -73.7798 H         1 UNK         0.0461 
     84 H84       -72.8191   34.2667  -73.6576 H         1 UNK         0.3453 
     85 H85       -71.1859   34.8338  -73.4301 H         1 UNK         0.3453 
     86 H86       -72.0278   29.6454  -73.0441 H         1 UNK         0.2984 
     87 H87       -71.2177   28.7553  -76.3957 H         1 UNK         0.0554 
     88 H88       -69.4760   27.4363  -75.1955 H         1 UNK         0.0847 
     89 H89       -69.5990   28.5179  -73.8077 H         1 UNK         0.0847 
     90 H90       -69.0282   29.1283  -75.3494 H         1 UNK         0.0847 
     91 H91       -72.8485   27.5599  -75.5722 H         1 UNK         0.3141 
     92 H92       -73.2806   25.5896  -72.7028 H         1 UNK         0.0743 
     93 H93       -75.0409   27.8670  -73.7419 H         1 UNK         0.0784 
     94 H94       -75.7090   26.3337  -73.1994 H         1 UNK         0.0784 
     95 H95       -74.8061   27.3352  -72.0828 H         1 UNK         0.0784 
     96 H96       -74.6594   25.6487  -75.1913 H         1 UNK         0.3213 
     97 H97       -72.4393   23.5145  -76.9981 H         1 UNK         0.0855 
     98 H98       -75.2083   23.0812  -75.7515 H         1 UNK         0.0814 
     99 H99       -73.8399   21.9864  -75.6679 H         1 UNK         0.0814 
    100 H100      -74.6199   22.2841  -77.2126 H         1 UNK         0.0814 
    101 H101      -74.9548   24.9568  -77.4411 H         1 UNK         0.3105 
    102 H102      -73.4327   27.7060  -79.0748 H         1 UNK         0.0547 
    103 H103      -73.4314   26.0059  -80.9050 H         1 UNK         0.0837 
    104 H104      -74.9905   25.3998  -80.3661 H         1 UNK         0.0837 
    105 H105      -74.8459   27.0395  -81.0013 H         1 UNK         0.0837 
    106 H106      -76.1649   26.9382  -78.7900 H         1 UNK         0.3020 
    107 H107      -76.6919   28.1455  -75.5110 H         1 UNK         0.1245 
    108 H108      -77.4462   29.4784  -78.1651 H         1 UNK         0.0781 
    109 H109      -76.5668   30.2555  -76.8861 H         1 UNK         0.0781 
    110 H110      -79.5640   28.0436  -75.4362 H         1 UNK         0.0836 
    111 H111      -80.4439   29.3728  -74.7666 H         1 UNK         0.0836 
    112 H112      -78.5274   27.2178  -77.4853 H         1 UNK         0.3022 
    113 H113      -78.5362   24.7569  -78.1117 H         1 UNK         0.0747 
    114 H114      -78.9322   22.5522  -76.9661 H         1 UNK         0.0793 
    115 H115      -77.2347   22.9768  -77.0827 H         1 UNK         0.0793 
    116 H116      -78.0749   23.1539  -75.5493 H         1 UNK         0.0793 
    117 H117      -80.2617   24.4291  -75.7949 H         1 UNK         0.3047 
    118 H118      -82.4615   27.0205  -76.5525 H         1 UNK         0.0822 
    119 H119      -84.1871   25.4328  -77.3905 H         1 UNK         0.0807 
    120 H120      -82.9330   24.2752  -77.8369 H         1 UNK         0.0807 
    121 H121      -83.0378   25.8268  -78.6570 H         1 UNK         0.0807 
    122 H122      -82.6378   24.3135  -75.3830 H         1 UNK         0.2946 
    123 H123      -82.8657   25.6452  -72.1578 H         1 UNK         0.1144 
    124 H124      -83.5877   23.3043  -72.1815 H         1 UNK         0.0793 
    125 H125      -82.9799   23.0574  -73.8103 H         1 UNK         0.0793 
    126 H126      -84.3385   24.1409  -73.5264 H         1 UNK         0.0793 
    127 H127      -80.9356   24.8336  -71.4274 H         1 UNK         0.2896 
@<TRIPOS>BOND
     1    1    2 1    
     2    1   67 1    
     3    1   68 1    
     4    1   69 1    
     5    2    3 2    
     6    2    4 am   BACKBONE|DICT|INTERRES
     7    4    5 1    
     8    4   70 1    
     9    5    6 1    
    10    5   65 1    
    11    5   71 1    
    12    6    7 1    
    13    6   72 1    
    14    6   73 1    
    15    7    8 1    
    16    8    9 1    
    17    8   74 1    
    18    8   75 1    
    19    9   10 ar   
    20    9   14 ar   
    21   10   11 ar   
    22   10   76 1    
    23   11   12 ar   
    24   11   48 1    
    25   12   13 ar   
    26   12   77 1    
    27   13   14 ar   
    28   13   15 1    
    29   14   78 1    
    30   15   16 1    
    31   15   79 1    
    32   15   80 1    
    33   16   17 1    
    34   17   18 1    
    35   17   81 1    
    36   17   82 1    
    37   18   19 1    
    38   18   22 1    
    39   18   83 1    
    40   19   20 am   BACKBONE|DICT|INTERRES
    41   19   21 2    
    42   20   84 1    
    43   20   85 1    
    44   22   23 am   BACKBONE|DICT|INTERRES
    45   22   86 1    
    46   23   24 2    
    47   23   25 1    
    48   25   26 1    
    49   25   27 1    
    50   25   87 1    
    51   26   88 1    
    52   26   89 1    
    53   26   90 1    
    54   27   28 am   BACKBONE|DICT|INTERRES
    55   27   91 1    
    56   28   29 2    
    57   28   30 1    
    58   30   31 1    
    59   30   32 1    
    60   30   92 1    
    61   31   93 1    
    62   31   94 1    
    63   31   95 1    
    64   32   33 am   BACKBONE|DICT|INTERRES
    65   32   96 1    
    66   33   34 2    
    67   33   35 1    
    68   35   36 1    
    69   35   37 1    
    70   35   97 1    
    71   36   98 1    
    72   36   99 1    
    73   36  100 1    
    74   37   38 am   BACKBONE|DICT|INTERRES
    75   37  101 1    
    76   38   39 2    
    77   38   40 1    
    78   40   41 1    
    79   40   42 1    
    80   40  102 1    
    81   41  103 1    
    82   41  104 1    
    83   41  105 1    
    84   42   43 am   BACKBONE|DICT|INTERRES
    85   42  106 1    
    86   43   44 2    
    87   43   45 1    
    88   45   46 1    
    89   45   49 1    
    90   45  107 1    
    91   46   47 1    
    92   46  108 1    
    93   46  109 1    
    94   47   48 1    
    95   48  110 1    
    96   48  111 1    
    97   49   50 am   BACKBONE|DICT|INTERRES
    98   49  112 1    
    99   50   51 2    
   100   50   52 1    
   101   52   53 1    
   102   52   54 1    
   103   52  113 1    
   104   53  114 1    
   105   53  115 1    
   106   53  116 1    
   107   54   55 am   BACKBONE|DICT|INTERRES
   108   54  117 1    
   109   55   56 2    
   110   55   57 1    
   111   57   58 1    
   112   57   59 1    
   113   57  118 1    
   114   58  119 1    
   115   58  120 1    
   116   58  121 1    
   117   59   60 am   BACKBONE|DICT|INTERRES
   118   59  122 1    
   119   60   61 2    
   120   60   62 1    
   121   62   63 1    
   122   62   64 1    
   123   62  123 1    
   124   63  124 1    
   125   63  125 1    
   126   63  126 1    
   127   64   65 am   BACKBONE|DICT|INTERRES
   128   64  127 1    
   129   65   66 2    
@<TRIPOS>SUBSTRUCTURE
     1 UNK         1 GROUP             0       ****    0 ROOT    
