@<TRIPOS>MOLECULE
3R135
127   129    1
SMALL
USER_CHARGES


@<TRIPOS>ATOM
      1 CA        -82.8536   25.9250  -72.1820 C.3       0 UNK        -0.1998 
      2 C         -83.4114   26.2657  -73.5624 C.2       0 UNK         0.4909 
      3 O         -84.3809   25.6330  -73.9771 O.2       0 UNK        -0.5240 
      4 N         -82.8874   27.2475  -74.3142 N.am      1 UNK        -0.4739 
      5 CA        -81.7061   28.0989  -74.1058 C.3       1 UNK         0.0864 
      6 C6        -81.6856   28.8416  -72.7427 C.3       11 UNK        -0.0881 
      7 S7        -80.6315   30.3337  -72.7529 S.3       11 UNK        -0.2682 
      8 C8        -79.5748   30.0658  -71.2913 C.3       11 UNK         0.0289 
      9 C9        -78.3859   29.1577  -71.5811 C.ar      11 UNK        -0.0687 
     10 C10       -78.5007   27.7702  -71.4501 C.ar      11 UNK        -0.0823 
     11 C11       -77.4076   26.9292  -71.6834 C.ar      11 UNK        -0.0830 
     12 C12       -76.1731   27.5044  -72.0129 C.ar      11 UNK        -0.1021 
     13 C13       -76.0442   28.8883  -72.1577 C.ar      11 UNK        -0.0753 
     14 C14       -77.1560   29.7096  -71.9508 C.ar      11 UNK        -0.0933 
     15 C15       -74.7047   29.4877  -72.5563 C.3       11 UNK         0.0166 
     16 S16       -73.9216   30.3737  -71.1720 S.3       11 UNK        -0.2615 
     17 C17       -74.0284   32.1071  -71.7414 C.3       11 UNK        -0.0865 
     18 CA        -72.7208   32.7055  -72.3460 C.3       10 UNK         0.0862 
     19 C         -71.5613   32.8963  -71.3176 C.2       10 UNK         0.5551 
     20 N         -70.2999   32.8472  -71.7266 N.am      10 UNK        -0.7319 
     21 O         -71.8059   33.1486  -70.1399 O.2       10 UNK        -0.5018 
     22 N         -72.3685   32.1491  -73.6702 N.am      10 UNK        -0.4509 
     23 C         -71.7396   30.9982  -73.9479 C.2       10 UNK         0.4899 
     24 O         -71.2987   30.2126  -73.1075 O.2       10 UNK        -0.4839 
     25 CA        -71.5128   30.7011  -75.4389 C.3       9 UNK         0.0222 
     26 CB        -70.1392   31.2262  -75.8884 C.3       9 UNK        -0.1966 
     27 N         -71.5854   29.2616  -75.6951 N.am      9 UNK        -0.4218 
     28 C         -72.7291   28.5765  -75.8092 C.2       9 UNK         0.5020 
     29 O         -73.8458   29.0987  -75.7979 O.2       9 UNK        -0.5274 
     30 CA        -72.6018   27.0465  -75.9097 C.3       8 UNK         0.0270 
     31 CB        -72.6378   26.4166  -74.5082 C.3       8 UNK        -0.1976 
     32 N         -73.6719   26.4638  -76.7212 N.am      8 UNK        -0.4313 
     33 C         -73.7840   26.6037  -78.0482 C.2       8 UNK         0.5041 
     34 O         -72.9436   27.1693  -78.7515 O.2       8 UNK        -0.5577 
     35 CA        -75.0536   26.0075  -78.6826 C.3       7 UNK         0.0284 
     36 CB        -75.0447   26.0347  -80.2265 C.3       7 UNK        -0.1958 
     37 N         -75.3595   24.6667  -78.1683 N.am      7 UNK        -0.4454 
     38 C         -74.6562   23.5388  -78.3476 C.2       7 UNK         0.5089 
     39 O         -73.6142   23.4704  -79.0017 O.2       7 UNK        -0.5125 
     40 CA        -75.2415   22.2676  -77.6982 C.3       6 UNK         0.0408 
     41 CB        -74.2547   21.0802  -77.6903 C.3       6 UNK        -0.1791 
     42 N         -75.8003   22.5003  -76.3603 N.am      6 UNK        -0.4762 
     43 C         -75.1395   22.8882  -75.2551 C.2       6 UNK         0.5007 
     44 O         -73.9259   23.0932  -75.2349 O.2       6 UNK        -0.5032 
     45 CA        -75.9619   23.0846  -73.9587 C.3       5 UNK         0.0783 
     46 C46       -75.4913   24.3286  -73.1619 C.3       11 UNK        -0.0857 
     47 S47       -76.1482   24.3669  -71.4580 S.3       11 UNK        -0.2512 
     48 C48       -77.6367   25.4171  -71.6107 C.3       11 UNK         0.0225 
     49 N         -77.3873   23.1837  -74.2750 N.am      5 UNK        -0.4615 
     50 C         -78.3173   22.2467  -74.0599 C.2       4 UNK         0.5053 
     51 O         -78.0916   21.1706  -73.5073 O.2       4 UNK        -0.5105 
     52 CA        -79.7407   22.5526  -74.5672 C.3       4 UNK         0.0263 
     53 CB        -80.6619   22.9286  -73.3948 C.3       4 UNK        -0.1981 
     54 N         -79.7773   23.6192  -75.5761 N.am      4 UNK        -0.4224 
     55 C         -79.3125   23.4900  -76.8298 C.2       3 UNK         0.4895 
     56 O         -78.8494   22.4407  -77.2766 O.2       3 UNK        -0.5091 
     57 CA        -79.2924   24.7484  -77.7190 C.3       3 UNK         0.0250 
     58 CB        -80.5898   24.8469  -78.5359 C.3       3 UNK        -0.1996 
     59 N         -79.0914   25.9967  -76.9772 N.am      3 UNK        -0.4254 
     60 C         -78.0395   26.2744  -76.1941 C.2       2 UNK         0.5004 
     61 O         -77.0696   25.5270  -76.0693 O.2       2 UNK        -0.5226 
     62 CA        -78.0918   27.5716  -75.3720 C.3       2 UNK         0.0269 
     63 CB        -77.3130   28.6861  -76.0839 C.3       2 UNK        -0.1926 
     64 N         -79.4402   28.0525  -75.0422 N.am      2 UNK        -0.4687 
     65 C         -80.3951   27.3472  -74.4173 C.2       1 UNK         0.5165 
     66 O         -80.2695   26.1588  -74.1159 O.2       1 UNK        -0.5079 
     67 H67       -83.2124   26.6401  -71.4429 H         1 UNK         0.0900 
     68 H68       -83.1931   24.9360  -71.8753 H         1 UNK         0.0900 
     69 H69       -81.7674   25.9075  -72.1563 H         1 UNK         0.0900 
     70 H70       -83.3289   27.3991  -75.2106 H         1 UNK         0.2959 
     71 H71       -81.8114   28.8626  -74.8787 H         1 UNK         0.1079 
     72 H72       -81.3846   28.1835  -71.9308 H         1 UNK         0.0837 
     73 H73       -82.6945   29.1737  -72.4929 H         1 UNK         0.0837 
     74 H74       -80.1697   29.6633  -70.4700 H         1 UNK         0.0685 
     75 H75       -79.2153   31.0367  -70.9470 H         1 UNK         0.0685 
     76 H76       -79.4501   27.3354  -71.1732 H         1 UNK         0.1434 
     77 H77       -75.3046   26.8854  -72.1763 H         1 UNK         0.1329 
     78 H78       -77.0569   30.7808  -72.0594 H         1 UNK         0.1335 
     79 H79       -74.8391   30.1419  -73.4183 H         1 UNK         0.0680 
     80 H80       -74.0183   28.7070  -72.8849 H         1 UNK         0.0680 
     81 H81       -74.8420   32.2074  -72.4604 H         1 UNK         0.1032 
     82 H82       -74.3444   32.7087  -70.8872 H         1 UNK         0.1032 
     83 H83       -72.9780   33.7378  -72.5867 H         1 UNK         0.0461 
     84 H84       -69.5574   32.9890  -71.0602 H         1 UNK         0.3453 
     85 H85       -70.0856   32.6315  -72.6865 H         1 UNK         0.3453 
     86 H86       -72.6407   32.7291  -74.4511 H         1 UNK         0.2984 
     87 H87       -72.2842   31.2043  -76.0263 H         1 UNK         0.0554 
     88 H88       -70.0650   32.3045  -75.7416 H         1 UNK         0.0847 
     89 H89       -69.9680   31.0337  -76.9478 H         1 UNK         0.0847 
     90 H90       -69.3251   30.7648  -75.3276 H         1 UNK         0.0847 
     91 H91       -70.7140   28.7528  -75.6556 H         1 UNK         0.3141 
     92 H92       -71.6465   26.8023  -76.3794 H         1 UNK         0.0743 
     93 H93       -73.5942   26.5907  -74.0155 H         1 UNK         0.0784 
     94 H94       -72.4728   25.3401  -74.5535 H         1 UNK         0.0784 
     95 H95       -71.8606   26.8360  -73.8675 H         1 UNK         0.0784 
     96 H96       -74.4200   25.9999  -76.2261 H         1 UNK         0.3213 
     97 H97       -75.8741   26.6497  -78.3602 H         1 UNK         0.0855 
     98 H98       -74.2092   25.4697  -80.6404 H         1 UNK         0.0814 
     99 H99       -74.9557   27.0571  -80.5957 H         1 UNK         0.0814 
    100 H100      -75.9665   25.6220  -80.6363 H         1 UNK         0.0814 
    101 H101      -76.1421   24.6328  -77.5211 H         1 UNK         0.3105 
    102 H102      -76.0869   21.9791  -78.3246 H         1 UNK         0.0547 
    103 H103      -74.7037   20.1930  -77.2443 H         1 UNK         0.0837 
    104 H104      -73.3441   21.3111  -77.1369 H         1 UNK         0.0837 
    105 H105      -73.9564   20.8147  -78.7052 H         1 UNK         0.0837 
    106 H106      -76.8019   22.3685  -76.2874 H         1 UNK         0.3020 
    107 H107      -75.7736   22.1969  -73.3507 H         1 UNK         0.1245 
    108 H108      -75.7585   25.2427  -73.6933 H         1 UNK         0.0781 
    109 H109      -74.4046   24.3404  -73.0627 H         1 UNK         0.0781 
    110 H110      -78.2722   25.2001  -70.7509 H         1 UNK         0.0836 
    111 H111      -78.2044   25.1118  -72.4894 H         1 UNK         0.0836 
    112 H112      -77.6495   24.0247  -74.7757 H         1 UNK         0.3022 
    113 H113      -80.1281   21.6400  -75.0252 H         1 UNK         0.0747 
    114 H114      -81.6764   23.1365  -73.7356 H         1 UNK         0.0793 
    115 H115      -80.7228   22.1146  -72.6714 H         1 UNK         0.0793 
    116 H116      -80.3009   23.8083  -72.8619 H         1 UNK         0.0793 
    117 H117      -80.0921   24.5305  -75.2542 H         1 UNK         0.3047 
    118 H118      -78.4575   24.6426  -78.4149 H         1 UNK         0.0822 
    119 H119      -80.5541   25.6783  -79.2402 H         1 UNK         0.0807 
    120 H120      -81.4617   24.9851  -77.8950 H         1 UNK         0.0807 
    121 H121      -80.7541   23.9390  -79.1184 H         1 UNK         0.0807 
    122 H122      -79.8394   26.6733  -77.0161 H         1 UNK         0.2946 
    123 H123      -77.5875   27.3563  -74.4302 H         1 UNK         0.1144 
    124 H124      -77.1880   29.5556  -75.4380 H         1 UNK         0.0793 
    125 H125      -77.8110   29.0101  -76.9984 H         1 UNK         0.0793 
    126 H126      -76.3133   28.3485  -76.3591 H         1 UNK         0.0793 
    127 H127      -79.6176   29.0286  -75.2335 H         1 UNK         0.2896 
@<TRIPOS>BOND
     1    1    2 1    
     2    1   67 1    
     3    1   68 1    
     4    1   69 1    
     5    2    3 2    
     6    2    4 am   BACKBONE|DICT|INTERRES
     7    4    5 1    
     8    4   70 1    
     9    5    6 1    
    10    5   65 1    
    11    5   71 1    
    12    6    7 1    
    13    6   72 1    
    14    6   73 1    
    15    7    8 1    
    16    8    9 1    
    17    8   74 1    
    18    8   75 1    
    19    9   10 ar   
    20    9   14 ar   
    21   10   11 ar   
    22   10   76 1    
    23   11   12 ar   
    24   11   48 1    
    25   12   13 ar   
    26   12   77 1    
    27   13   14 ar   
    28   13   15 1    
    29   14   78 1    
    30   15   16 1    
    31   15   79 1    
    32   15   80 1    
    33   16   17 1    
    34   17   18 1    
    35   17   81 1    
    36   17   82 1    
    37   18   19 1    
    38   18   22 1    
    39   18   83 1    
    40   19   20 am   BACKBONE|DICT|INTERRES
    41   19   21 2    
    42   20   84 1    
    43   20   85 1    
    44   22   23 am   BACKBONE|DICT|INTERRES
    45   22   86 1    
    46   23   24 2    
    47   23   25 1    
    48   25   26 1    
    49   25   27 1    
    50   25   87 1    
    51   26   88 1    
    52   26   89 1    
    53   26   90 1    
    54   27   28 am   BACKBONE|DICT|INTERRES
    55   27   91 1    
    56   28   29 2    
    57   28   30 1    
    58   30   31 1    
    59   30   32 1    
    60   30   92 1    
    61   31   93 1    
    62   31   94 1    
    63   31   95 1    
    64   32   33 am   BACKBONE|DICT|INTERRES
    65   32   96 1    
    66   33   34 2    
    67   33   35 1    
    68   35   36 1    
    69   35   37 1    
    70   35   97 1    
    71   36   98 1    
    72   36   99 1    
    73   36  100 1    
    74   37   38 am   BACKBONE|DICT|INTERRES
    75   37  101 1    
    76   38   39 2    
    77   38   40 1    
    78   40   41 1    
    79   40   42 1    
    80   40  102 1    
    81   41  103 1    
    82   41  104 1    
    83   41  105 1    
    84   42   43 am   BACKBONE|DICT|INTERRES
    85   42  106 1    
    86   43   44 2    
    87   43   45 1    
    88   45   46 1    
    89   45   49 1    
    90   45  107 1    
    91   46   47 1    
    92   46  108 1    
    93   46  109 1    
    94   47   48 1    
    95   48  110 1    
    96   48  111 1    
    97   49   50 am   BACKBONE|DICT|INTERRES
    98   49  112 1    
    99   50   51 2    
   100   50   52 1    
   101   52   53 1    
   102   52   54 1    
   103   52  113 1    
   104   53  114 1    
   105   53  115 1    
   106   53  116 1    
   107   54   55 am   BACKBONE|DICT|INTERRES
   108   54  117 1    
   109   55   56 2    
   110   55   57 1    
   111   57   58 1    
   112   57   59 1    
   113   57  118 1    
   114   58  119 1    
   115   58  120 1    
   116   58  121 1    
   117   59   60 am   BACKBONE|DICT|INTERRES
   118   59  122 1    
   119   60   61 2    
   120   60   62 1    
   121   62   63 1    
   122   62   64 1    
   123   62  123 1    
   124   63  124 1    
   125   63  125 1    
   126   63  126 1    
   127   64   65 am   BACKBONE|DICT|INTERRES
   128   64  127 1    
   129   65   66 2    
@<TRIPOS>SUBSTRUCTURE
     1 UNK         1 GROUP             0       ****    0 ROOT    
