@<TRIPOS>MOLECULE
3R135
127   129    1
SMALL
USER_CHARGES


@<TRIPOS>ATOM
      1 CA        -84.6662   26.1775  -71.0073 C.3       0 UNK        -0.1998 
      2 C         -83.4178   26.4598  -71.8289 C.2       0 UNK         0.4909 
      3 O         -82.4722   25.6721  -71.7919 O.2       0 UNK        -0.5240 
      4 N         -83.4133   27.5714  -72.5794 N.am      1 UNK        -0.4739 
      5 CA        -82.3362   28.0684  -73.4525 C.3       1 UNK         0.0864 
      6 C6        -80.9855   28.2576  -72.7104 C.3       11 UNK        -0.0881 
      7 S7        -79.9982   29.6381  -73.3782 S.3       11 UNK        -0.2682 
      8 C8        -79.0358   30.1320  -71.9120 C.3       11 UNK         0.0289 
      9 C9        -77.8308   29.2264  -71.7028 C.ar      11 UNK        -0.0687 
     10 C10       -77.9697   28.0029  -71.0393 C.ar      11 UNK        -0.0823 
     11 C11       -76.8723   27.1484  -70.8933 C.ar      11 UNK        -0.0830 
     12 C12       -75.6207   27.5643  -71.3518 C.ar      11 UNK        -0.1021 
     13 C13       -75.4544   28.7933  -71.9932 C.ar      11 UNK        -0.0753 
     14 C14       -76.5742   29.6142  -72.1802 C.ar      11 UNK        -0.0933 
     15 C15       -74.0507   29.1581  -72.4769 C.3       11 UNK         0.0166 
     16 S16       -73.7694   30.9207  -72.8578 S.3       11 UNK        -0.2615 
     17 C17       -74.2162   30.9819  -74.6289 C.3       11 UNK        -0.0865 
     18 CA        -73.0182   31.2620  -75.5769 C.3       10 UNK         0.0862 
     19 C         -72.5246   32.7353  -75.4791 C.2       10 UNK         0.5551 
     20 N         -73.2598   33.6707  -76.0660 N.am      10 UNK        -0.7319 
     21 O         -71.5060   33.0436  -74.8618 O.2       10 UNK        -0.5018 
     22 N         -71.9427   30.2683  -75.4255 N.am      10 UNK        -0.4509 
     23 C         -70.9289   30.1085  -76.2849 C.2       10 UNK         0.4899 
     24 O         -70.8347   30.7229  -77.3485 O.2       10 UNK        -0.4839 
     25 CA        -69.8313   29.0894  -75.9278 C.3       9 UNK         0.0222 
     26 CB        -68.7833   29.7045  -74.9791 C.3       9 UNK        -0.1966 
     27 N         -70.3322   27.7983  -75.4387 N.am      9 UNK        -0.4218 
     28 C         -70.9227   27.4973  -74.2756 C.2       9 UNK         0.5020 
     29 O         -71.1273   28.3191  -73.3819 O.2       9 UNK        -0.5274 
     30 CA        -71.3827   26.0328  -74.1063 C.3       8 UNK         0.0270 
     31 CB        -71.9069   25.7385  -72.6890 C.3       8 UNK        -0.1976 
     32 N         -72.4160   25.6680  -75.0812 N.am      8 UNK        -0.4313 
     33 C         -72.2077   25.4712  -76.3927 C.2       8 UNK         0.5041 
     34 O         -71.0861   25.4899  -76.9048 O.2       8 UNK        -0.5577 
     35 CA        -73.4319   25.2460  -77.3016 C.3       7 UNK         0.0284 
     36 CB        -73.5871   23.7492  -77.6168 C.3       7 UNK        -0.1958 
     37 N         -74.6925   25.7594  -76.7588 N.am      7 UNK        -0.4454 
     38 C         -74.9404   27.0313  -76.4150 C.2       7 UNK         0.5089 
     39 O         -74.1647   27.9605  -76.6357 O.2       7 UNK        -0.5125 
     40 CA        -76.2508   27.3186  -75.6593 C.3       6 UNK         0.0408 
     41 CB        -77.2855   27.9692  -76.5886 C.3       6 UNK        -0.1791 
     42 N         -76.8600   26.1597  -74.9994 N.am      6 UNK        -0.4762 
     43 C         -76.2989   25.4076  -74.0383 C.2       6 UNK         0.5007 
     44 O         -75.1216   25.4995  -73.6875 O.2       6 UNK        -0.5032 
     45 CA        -77.2172   24.3468  -73.4026 C.3       5 UNK         0.0783 
     46 C46       -78.4149   25.0012  -72.6519 C.3       11 UNK        -0.0857 
     47 S47       -78.4099   24.7667  -70.8430 S.3       11 UNK        -0.2512 
     48 C48       -77.0049   25.7730  -70.2455 C.3       11 UNK         0.0225 
     49 N         -77.6757   23.4483  -74.4605 N.am      5 UNK        -0.4615 
     50 C         -76.9660   22.4356  -74.9731 C.2       4 UNK         0.5053 
     51 O         -75.8869   22.0564  -74.5191 O.2       4 UNK        -0.5105 
     52 CA        -77.5516   21.7297  -76.2115 C.3       4 UNK         0.0263 
     53 CB        -78.3102   20.4592  -75.7954 C.3       4 UNK        -0.1981 
     54 N         -78.4414   22.5835  -77.0060 N.am      4 UNK        -0.4224 
     55 C         -78.0510   23.6756  -77.6798 C.2       3 UNK         0.4895 
     56 O         -76.8844   24.0569  -77.7466 O.2       3 UNK        -0.5091 
     57 CA        -79.1550   24.5161  -78.3445 C.3       3 UNK         0.0250 
     58 CB        -79.4429   24.0009  -79.7635 C.3       3 UNK        -0.1996 
     59 N         -80.4050   24.5688  -77.5762 N.am      3 UNK        -0.4254 
     60 C         -80.5183   25.0317  -76.3232 C.2       2 UNK         0.5004 
     61 O         -79.5652   25.4385  -75.6533 O.2       2 UNK        -0.5226 
     62 CA        -81.9174   24.9478  -75.6937 C.3       2 UNK         0.0269 
     63 CB        -82.1606   23.5365  -75.1334 C.3       2 UNK        -0.1926 
     64 N         -82.0932   25.9128  -74.6091 N.am      2 UNK        -0.4687 
     65 C         -82.1779   27.2412  -74.7484 C.2       1 UNK         0.5165 
     66 O         -82.1804   27.8114  -75.8409 O.2       1 UNK        -0.5079 
     67 H67       -84.4121   26.1187  -69.9493 H         1 UNK         0.0900 
     68 H68       -85.1037   25.2253  -71.3061 H         1 UNK         0.0900 
     69 H69       -85.4219   26.9527  -71.1321 H         1 UNK         0.0900 
     70 H70       -84.2435   28.1488  -72.5784 H         1 UNK         0.2959 
     71 H71       -82.6837   29.0546  -73.7661 H         1 UNK         0.1079 
     72 H72       -80.3923   27.3432  -72.7212 H         1 UNK         0.0837 
     73 H73       -81.1788   28.4695  -71.6580 H         1 UNK         0.0837 
     74 H74       -78.7062   31.1633  -72.0471 H         1 UNK         0.0685 
     75 H75       -79.6686   30.1351  -71.0234 H         1 UNK         0.0685 
     76 H76       -78.9386   27.6966  -70.6703 H         1 UNK         0.1434 
     77 H77       -74.7661   26.9134  -71.2286 H         1 UNK         0.1329 
     78 H78       -76.4793   30.5589  -72.6953 H         1 UNK         0.1335 
     79 H79       -73.8107   28.5479  -73.3486 H         1 UNK         0.0680 
     80 H80       -73.3317   28.8794  -71.7050 H         1 UNK         0.0680 
     81 H81       -74.9930   31.7375  -74.7592 H         1 UNK         0.1032 
     82 H82       -74.6886   30.0434  -74.9182 H         1 UNK         0.1032 
     83 H83       -73.3948   31.1362  -76.5943 H         1 UNK         0.0461 
     84 H84       -74.0969   33.4354  -76.5761 H         1 UNK         0.3453 
     85 H85       -72.9649   34.6329  -76.0067 H         1 UNK         0.3453 
     86 H86       -71.9159   29.7526  -74.5520 H         1 UNK         0.2984 
     87 H87       -69.3160   28.8528  -76.8602 H         1 UNK         0.0554 
     88 H88       -67.9748   29.0039  -74.7709 H         1 UNK         0.0847 
     89 H89       -69.2194   30.0082  -74.0270 H         1 UNK         0.0847 
     90 H90       -68.3356   30.5944  -75.4235 H         1 UNK         0.0847 
     91 H91       -70.3099   27.0410  -76.1199 H         1 UNK         0.3141 
     92 H92       -70.5100   25.3979  -74.2733 H         1 UNK         0.0743 
     93 H93       -72.7866   26.3372  -72.4542 H         1 UNK         0.0784 
     94 H94       -72.1784   24.6889  -72.5755 H         1 UNK         0.0784 
     95 H95       -71.1492   25.9621  -71.9369 H         1 UNK         0.0784 
     96 H96       -73.3712   25.6441  -74.7341 H         1 UNK         0.3213 
     97 H97       -73.2385   25.7772  -78.2356 H         1 UNK         0.0855 
     98 H98       -73.8769   23.1791  -76.7329 H         1 UNK         0.0814 
     99 H99       -72.6527   23.3260  -77.9883 H         1 UNK         0.0814 
    100 H100      -74.3404   23.5823  -78.3865 H         1 UNK         0.0814 
    101 H101      -75.4393   25.0845  -76.6344 H         1 UNK         0.3105 
    102 H102      -76.0123   28.0334  -74.8702 H         1 UNK         0.0547 
    103 H103      -76.8864   28.8765  -77.0437 H         1 UNK         0.0837 
    104 H104      -77.5750   27.2979  -77.3965 H         1 UNK         0.0837 
    105 H105      -78.1880   28.2493  -76.0440 H         1 UNK         0.0837 
    106 H106      -77.8310   25.9688  -75.2417 H         1 UNK         0.3020 
    107 H107      -76.6151   23.7716  -72.6954 H         1 UNK         0.1245 
    108 H108      -79.3587   24.5752  -72.9971 H         1 UNK         0.0781 
    109 H109      -78.5149   26.0643  -72.8695 H         1 UNK         0.0781 
    110 H110      -76.0937   25.1927  -70.4000 H         1 UNK         0.0836 
    111 H111      -77.1019   25.9022  -69.1669 H         1 UNK         0.0836 
    112 H112      -78.5195   23.7373  -74.9385 H         1 UNK         0.3022 
    113 H113      -76.7126   21.4376  -76.8470 H         1 UNK         0.0747 
    114 H114      -78.6612   19.9031  -76.6649 H         1 UNK         0.0793 
    115 H115      -77.6653   19.7897  -75.2243 H         1 UNK         0.0793 
    116 H116      -79.1743   20.6902  -75.1711 H         1 UNK         0.0793 
    117 H117      -79.4216   22.3424  -77.0117 H         1 UNK         0.3047 
    118 H118      -78.7802   25.5377  -78.4257 H         1 UNK         0.0822 
    119 H119      -80.1472   24.6484  -80.2861 H         1 UNK         0.0807 
    120 H120      -79.8570   22.9918  -79.7530 H         1 UNK         0.0807 
    121 H121      -78.5298   23.9720  -80.3602 H         1 UNK         0.0807 
    122 H122      -81.2344   24.2369  -78.0480 H         1 UNK         0.2946 
    123 H123      -82.6607   25.1632  -76.4646 H         1 UNK         0.1144 
    124 H124      -81.4385   23.2816  -74.3561 H         1 UNK         0.0793 
    125 H125      -82.0815   22.7798  -75.9150 H         1 UNK         0.0793 
    126 H126      -83.1582   23.4489  -74.7023 H         1 UNK         0.0793 
    127 H127      -82.0999   25.5510  -73.6592 H         1 UNK         0.2896 
@<TRIPOS>BOND
     1    1    2 1    
     2    1   67 1    
     3    1   68 1    
     4    1   69 1    
     5    2    3 2    
     6    2    4 am   BACKBONE|DICT|INTERRES
     7    4    5 1    
     8    4   70 1    
     9    5    6 1    
    10    5   65 1    
    11    5   71 1    
    12    6    7 1    
    13    6   72 1    
    14    6   73 1    
    15    7    8 1    
    16    8    9 1    
    17    8   74 1    
    18    8   75 1    
    19    9   10 ar   
    20    9   14 ar   
    21   10   11 ar   
    22   10   76 1    
    23   11   12 ar   
    24   11   48 1    
    25   12   13 ar   
    26   12   77 1    
    27   13   14 ar   
    28   13   15 1    
    29   14   78 1    
    30   15   16 1    
    31   15   79 1    
    32   15   80 1    
    33   16   17 1    
    34   17   18 1    
    35   17   81 1    
    36   17   82 1    
    37   18   19 1    
    38   18   22 1    
    39   18   83 1    
    40   19   20 am   BACKBONE|DICT|INTERRES
    41   19   21 2    
    42   20   84 1    
    43   20   85 1    
    44   22   23 am   BACKBONE|DICT|INTERRES
    45   22   86 1    
    46   23   24 2    
    47   23   25 1    
    48   25   26 1    
    49   25   27 1    
    50   25   87 1    
    51   26   88 1    
    52   26   89 1    
    53   26   90 1    
    54   27   28 am   BACKBONE|DICT|INTERRES
    55   27   91 1    
    56   28   29 2    
    57   28   30 1    
    58   30   31 1    
    59   30   32 1    
    60   30   92 1    
    61   31   93 1    
    62   31   94 1    
    63   31   95 1    
    64   32   33 am   BACKBONE|DICT|INTERRES
    65   32   96 1    
    66   33   34 2    
    67   33   35 1    
    68   35   36 1    
    69   35   37 1    
    70   35   97 1    
    71   36   98 1    
    72   36   99 1    
    73   36  100 1    
    74   37   38 am   BACKBONE|DICT|INTERRES
    75   37  101 1    
    76   38   39 2    
    77   38   40 1    
    78   40   41 1    
    79   40   42 1    
    80   40  102 1    
    81   41  103 1    
    82   41  104 1    
    83   41  105 1    
    84   42   43 am   BACKBONE|DICT|INTERRES
    85   42  106 1    
    86   43   44 2    
    87   43   45 1    
    88   45   46 1    
    89   45   49 1    
    90   45  107 1    
    91   46   47 1    
    92   46  108 1    
    93   46  109 1    
    94   47   48 1    
    95   48  110 1    
    96   48  111 1    
    97   49   50 am   BACKBONE|DICT|INTERRES
    98   49  112 1    
    99   50   51 2    
   100   50   52 1    
   101   52   53 1    
   102   52   54 1    
   103   52  113 1    
   104   53  114 1    
   105   53  115 1    
   106   53  116 1    
   107   54   55 am   BACKBONE|DICT|INTERRES
   108   54  117 1    
   109   55   56 2    
   110   55   57 1    
   111   57   58 1    
   112   57   59 1    
   113   57  118 1    
   114   58  119 1    
   115   58  120 1    
   116   58  121 1    
   117   59   60 am   BACKBONE|DICT|INTERRES
   118   59  122 1    
   119   60   61 2    
   120   60   62 1    
   121   62   63 1    
   122   62   64 1    
   123   62  123 1    
   124   63  124 1    
   125   63  125 1    
   126   63  126 1    
   127   64   65 am   BACKBONE|DICT|INTERRES
   128   64  127 1    
   129   65   66 2    
@<TRIPOS>SUBSTRUCTURE
     1 UNK         1 GROUP             0       ****    0 ROOT    
