@<TRIPOS>MOLECULE
3R135
127   129    1
SMALL
USER_CHARGES


@<TRIPOS>ATOM
      1 CA        -83.8199   27.3896  -70.6822 C.3       0 UNK        -0.1998 
      2 C         -82.7731   27.2829  -71.7802 C.2       0 UNK         0.4909 
      3 O         -81.7755   26.5845  -71.6015 O.2       0 UNK        -0.5240 
      4 N         -82.9978   27.9699  -72.9095 N.am      1 UNK        -0.4739 
      5 CA        -82.1531   28.0483  -74.1140 C.3       1 UNK         0.0864 
      6 C6        -80.7267   28.6070  -73.8591 C.3       11 UNK        -0.0881 
      7 S7        -80.7471   30.3439  -73.2871 S.3       11 UNK        -0.2682 
      8 C8        -80.3352   30.2120  -71.5142 C.3       11 UNK         0.0289 
      9 C9        -78.9176   29.7063  -71.2893 C.ar      11 UNK        -0.0687 
     10 C10       -78.7023   28.3887  -70.8779 C.ar      11 UNK        -0.0823 
     11 C11       -77.4037   27.8859  -70.7536 C.ar      11 UNK        -0.0830 
     12 C12       -76.3145   28.7337  -70.9779 C.ar      11 UNK        -0.1021 
     13 C13       -76.5169   30.0637  -71.3571 C.ar      11 UNK        -0.0753 
     14 C14       -77.8209   30.5442  -71.5158 C.ar      11 UNK        -0.0933 
     15 C15       -75.3244   30.9754  -71.6002 C.3       11 UNK         0.0166 
     16 S16       -74.5933   30.7091  -73.2475 S.3       11 UNK        -0.2615 
     17 C17       -73.2706   31.9718  -73.2254 C.3       11 UNK        -0.0865 
     18 CA        -71.8298   31.4092  -73.0962 C.3       10 UNK         0.0862 
     19 C         -71.5863   30.6664  -71.7483 C.2       10 UNK         0.5551 
     20 N         -71.1938   29.3981  -71.7492 N.am      10 UNK        -0.7319 
     21 O         -71.7429   31.2602  -70.6843 O.2       10 UNK        -0.5018 
     22 N         -71.4104   30.6799  -74.3063 N.am      10 UNK        -0.4509 
     23 C         -70.1365   30.5313  -74.6927 C.2       10 UNK         0.4899 
     24 O         -69.1773   30.9862  -74.0670 O.2       10 UNK        -0.4839 
     25 CA        -69.8962   29.7271  -75.9836 C.3       9 UNK         0.0222 
     26 CB        -68.4267   29.7712  -76.4453 C.3       9 UNK        -0.1966 
     27 N         -70.2972   28.3298  -75.8126 N.am      9 UNK        -0.4218 
     28 C         -71.5425   27.8684  -75.9709 C.2       9 UNK         0.5020 
     29 O         -72.4999   28.5841  -76.2737 O.2       9 UNK        -0.5274 
     30 CA        -71.7498   26.3729  -75.6944 C.3       8 UNK         0.0270 
     31 CB        -72.1243   26.1449  -74.2195 C.3       8 UNK        -0.1976 
     32 N         -72.8062   25.8375  -76.5538 N.am      8 UNK        -0.4313 
     33 C         -72.5940   25.3101  -77.7683 C.2       8 UNK         0.5041 
     34 O         -71.4732   25.1993  -78.2690 O.2       8 UNK        -0.5577 
     35 CA        -73.8064   24.7907  -78.5679 C.3       7 UNK         0.0284 
     36 CB        -73.8515   23.2540  -78.5304 C.3       7 UNK        -0.1958 
     37 N         -75.0928   25.3102  -78.1058 N.am      7 UNK        -0.4454 
     38 C         -75.5293   26.5624  -78.2927 C.2       7 UNK         0.5089 
     39 O         -74.9339   27.4031  -78.9668 O.2       7 UNK        -0.5125 
     40 CA        -76.8428   26.9488  -77.5862 C.3       6 UNK         0.0408 
     41 CB        -78.0420   26.7399  -78.5233 C.3       6 UNK        -0.1791 
     42 N         -77.0752   26.2220  -76.3327 N.am      6 UNK        -0.4762 
     43 C         -76.2694   26.2564  -75.2608 C.2       6 UNK         0.5007 
     44 O         -75.2284   26.9060  -75.2143 O.2       6 UNK        -0.5032 
     45 CA        -76.6682   25.3901  -74.0550 C.3       5 UNK         0.0783 
     46 C46       -77.7931   26.0741  -73.2517 C.3       11 UNK        -0.0857 
     47 S47       -78.0723   25.3005  -71.6200 S.3       11 UNK        -0.2512 
     48 C48       -77.1739   26.4059  -70.4685 C.3       11 UNK         0.0225 
     49 N         -77.0342   24.0435  -74.4922 N.am      5 UNK        -0.4615 
     50 C         -76.1593   23.1113  -74.8896 C.2       4 UNK         0.5053 
     51 O         -74.9381   23.2567  -74.8489 O.2       4 UNK        -0.5105 
     52 CA        -76.7460   21.8025  -75.4475 C.3       4 UNK         0.0263 
     53 CB        -76.9376   20.7763  -74.3195 C.3       4 UNK        -0.1981 
     54 N         -78.0185   21.9980  -76.1490 N.am      4 UNK        -0.4224 
     55 C         -78.1545   22.6704  -77.3014 C.2       3 UNK         0.4895 
     56 O         -77.2124   23.1579  -77.9254 O.2       3 UNK        -0.5091 
     57 CA        -79.5911   22.8768  -77.8160 C.3       3 UNK         0.0250 
     58 CB        -80.0494   21.6634  -78.6404 C.3       3 UNK        -0.1996 
     59 N         -80.5665   23.1489  -76.7511 N.am      3 UNK        -0.4254 
     60 C         -80.5025   24.1942  -75.9142 C.2       2 UNK         0.5004 
     61 O         -79.5934   25.0251  -75.9396 O.2       2 UNK        -0.5226 
     62 CA        -81.5936   24.2825  -74.8322 C.3       2 UNK         0.0269 
     63 CB        -81.2828   23.3024  -73.6882 C.3       2 UNK        -0.1926 
     64 N         -81.7256   25.6259  -74.2607 N.am      2 UNK        -0.4687 
     65 C         -82.1176   26.7268  -74.9139 C.2       1 UNK         0.5165 
     66 O         -82.4760   26.7265  -76.0929 O.2       1 UNK        -0.5079 
     67 H67       -84.6455   28.0420  -70.9659 H         1 UNK         0.0900 
     68 H68       -84.2271   26.4045  -70.4564 H         1 UNK         0.0900 
     69 H69       -83.3689   27.7885  -69.7740 H         1 UNK         0.0900 
     70 H70       -83.8550   28.5013  -72.9767 H         1 UNK         0.2959 
     71 H71       -82.6583   28.7632  -74.7662 H         1 UNK         0.1079 
     72 H72       -80.1423   28.5848  -74.7813 H         1 UNK         0.0837 
     73 H73       -80.1822   27.9803  -73.1547 H         1 UNK         0.0837 
     74 H74       -80.4418   31.1959  -71.0555 H         1 UNK         0.0685 
     75 H75       -81.0614   29.5668  -71.0190 H         1 UNK         0.0685 
     76 H76       -79.5459   27.7305  -70.7184 H         1 UNK         0.1434 
     77 H77       -75.3051   28.3551  -70.8888 H         1 UNK         0.1329 
     78 H78       -77.9850   31.5651  -71.8328 H         1 UNK         0.1335 
     79 H79       -74.5683   30.7991  -70.8337 H         1 UNK         0.0680 
     80 H80       -75.6253   32.0198  -71.5025 H         1 UNK         0.0680 
     81 H81       -73.3505   32.5537  -74.1448 H         1 UNK         0.1032 
     82 H82       -73.4603   32.6877  -72.4234 H         1 UNK         0.1032 
     83 H83       -71.1842   32.2879  -73.0375 H         1 UNK         0.0461 
     84 H84       -71.0571   28.9124  -72.6195 H         1 UNK         0.3453 
     85 H85       -71.0312   28.9292  -70.8724 H         1 UNK         0.3453 
     86 H86       -72.1411   30.2296  -74.8461 H         1 UNK         0.2984 
     87 H87       -70.4995   30.1850  -76.7706 H         1 UNK         0.0554 
     88 H88       -68.0979   30.7995  -76.6023 H         1 UNK         0.0847 
     89 H89       -68.2918   29.2435  -77.3896 H         1 UNK         0.0847 
     90 H90       -67.7552   29.3231  -75.7118 H         1 UNK         0.0847 
     91 H91       -69.5733   27.6872  -75.5227 H         1 UNK         0.3141 
     92 H92       -70.8176   25.8393  -75.8927 H         1 UNK         0.0743 
     93 H93       -72.9782   26.7516  -73.9164 H         1 UNK         0.0784 
     94 H94       -72.3722   25.1003  -74.0288 H         1 UNK         0.0784 
     95 H95       -71.2945   26.4066  -73.5621 H         1 UNK         0.0784 
     96 H96       -73.7571   26.0090  -76.2411 H         1 UNK         0.3213 
     97 H97       -73.6677   25.1023  -79.6054 H         1 UNK         0.0855 
     98 H98       -74.0043   22.8810  -77.5169 H         1 UNK         0.0814 
     99 H99       -72.9189   22.8250  -78.8996 H         1 UNK         0.0814 
    100 H100      -74.6559   22.8649  -79.1551 H         1 UNK         0.0814 
    101 H101      -75.6994   24.6635  -77.6141 H         1 UNK         0.3105 
    102 H102      -76.7826   28.0106  -77.3392 H         1 UNK         0.0547 
    103 H103      -77.9295   27.3249  -79.4370 H         1 UNK         0.0837 
    104 H104      -78.1439   25.6949  -78.8159 H         1 UNK         0.0837 
    105 H105      -78.9753   27.0486  -78.0516 H         1 UNK         0.0837 
    106 H106      -77.9429   25.6900  -76.2673 H         1 UNK         0.3020 
    107 H107      -75.7875   25.3169  -73.4120 H         1 UNK         0.1245 
    108 H108      -78.7366   26.0351  -73.7945 H         1 UNK         0.0781 
    109 H109      -77.5816   27.1369  -73.1440 H         1 UNK         0.0781 
    110 H110      -76.1111   26.1651  -70.5232 H         1 UNK         0.0836 
    111 H111      -77.4872   26.1855  -69.4473 H         1 UNK         0.0836 
    112 H112      -78.0218   23.8661  -74.5997 H         1 UNK         0.3022 
    113 H113      -76.0261   21.3974  -76.1622 H         1 UNK         0.0747 
    114 H114      -77.2802   19.8173  -74.7087 H         1 UNK         0.0793 
    115 H115      -75.9981   20.5942  -73.7956 H         1 UNK         0.0793 
    116 H116      -77.6621   21.1184  -73.5792 H         1 UNK         0.0793 
    117 H117      -78.8472   21.6250  -75.7097 H         1 UNK         0.3047 
    118 H118      -79.5778   23.7472  -78.4749 H         1 UNK         0.0822 
    119 H119      -81.0233   21.8389  -79.0977 H         1 UNK         0.0807 
    120 H120      -80.1212   20.7616  -78.0310 H         1 UNK         0.0807 
    121 H121      -79.3476   21.4548  -79.4495 H         1 UNK         0.0807 
    122 H122      -81.3351   22.4989  -76.6650 H         1 UNK         0.2946 
    123 H123      -82.5499   24.0158  -75.2873 H         1 UNK         0.1144 
    124 H124      -82.0629   23.3240  -72.9268 H         1 UNK         0.0793 
    125 H125      -80.3366   23.5414  -73.2000 H         1 UNK         0.0793 
    126 H126      -81.2157   22.2754  -74.0491 H         1 UNK         0.0793 
    127 H127      -81.4912   25.7379  -73.2774 H         1 UNK         0.2896 
@<TRIPOS>BOND
     1    1    2 1    
     2    1   67 1    
     3    1   68 1    
     4    1   69 1    
     5    2    3 2    
     6    2    4 am   BACKBONE|DICT|INTERRES
     7    4    5 1    
     8    4   70 1    
     9    5    6 1    
    10    5   65 1    
    11    5   71 1    
    12    6    7 1    
    13    6   72 1    
    14    6   73 1    
    15    7    8 1    
    16    8    9 1    
    17    8   74 1    
    18    8   75 1    
    19    9   10 ar   
    20    9   14 ar   
    21   10   11 ar   
    22   10   76 1    
    23   11   12 ar   
    24   11   48 1    
    25   12   13 ar   
    26   12   77 1    
    27   13   14 ar   
    28   13   15 1    
    29   14   78 1    
    30   15   16 1    
    31   15   79 1    
    32   15   80 1    
    33   16   17 1    
    34   17   18 1    
    35   17   81 1    
    36   17   82 1    
    37   18   19 1    
    38   18   22 1    
    39   18   83 1    
    40   19   20 am   BACKBONE|DICT|INTERRES
    41   19   21 2    
    42   20   84 1    
    43   20   85 1    
    44   22   23 am   BACKBONE|DICT|INTERRES
    45   22   86 1    
    46   23   24 2    
    47   23   25 1    
    48   25   26 1    
    49   25   27 1    
    50   25   87 1    
    51   26   88 1    
    52   26   89 1    
    53   26   90 1    
    54   27   28 am   BACKBONE|DICT|INTERRES
    55   27   91 1    
    56   28   29 2    
    57   28   30 1    
    58   30   31 1    
    59   30   32 1    
    60   30   92 1    
    61   31   93 1    
    62   31   94 1    
    63   31   95 1    
    64   32   33 am   BACKBONE|DICT|INTERRES
    65   32   96 1    
    66   33   34 2    
    67   33   35 1    
    68   35   36 1    
    69   35   37 1    
    70   35   97 1    
    71   36   98 1    
    72   36   99 1    
    73   36  100 1    
    74   37   38 am   BACKBONE|DICT|INTERRES
    75   37  101 1    
    76   38   39 2    
    77   38   40 1    
    78   40   41 1    
    79   40   42 1    
    80   40  102 1    
    81   41  103 1    
    82   41  104 1    
    83   41  105 1    
    84   42   43 am   BACKBONE|DICT|INTERRES
    85   42  106 1    
    86   43   44 2    
    87   43   45 1    
    88   45   46 1    
    89   45   49 1    
    90   45  107 1    
    91   46   47 1    
    92   46  108 1    
    93   46  109 1    
    94   47   48 1    
    95   48  110 1    
    96   48  111 1    
    97   49   50 am   BACKBONE|DICT|INTERRES
    98   49  112 1    
    99   50   51 2    
   100   50   52 1    
   101   52   53 1    
   102   52   54 1    
   103   52  113 1    
   104   53  114 1    
   105   53  115 1    
   106   53  116 1    
   107   54   55 am   BACKBONE|DICT|INTERRES
   108   54  117 1    
   109   55   56 2    
   110   55   57 1    
   111   57   58 1    
   112   57   59 1    
   113   57  118 1    
   114   58  119 1    
   115   58  120 1    
   116   58  121 1    
   117   59   60 am   BACKBONE|DICT|INTERRES
   118   59  122 1    
   119   60   61 2    
   120   60   62 1    
   121   62   63 1    
   122   62   64 1    
   123   62  123 1    
   124   63  124 1    
   125   63  125 1    
   126   63  126 1    
   127   64   65 am   BACKBONE|DICT|INTERRES
   128   64  127 1    
   129   65   66 2    
@<TRIPOS>SUBSTRUCTURE
     1 UNK         1 GROUP             0       ****    0 ROOT    
