@<TRIPOS>MOLECULE
3R135
127   129    1
SMALL
USER_CHARGES


@<TRIPOS>ATOM
      1 CA        -84.8267   26.2649  -74.6067 C.3       0 UNK        -0.1998 
      2 C         -83.5104   26.8027  -75.1467 C.2       0 UNK         0.4909 
      3 O         -83.4626   27.2846  -76.2782 O.2       0 UNK        -0.5240 
      4 N         -82.4370   26.7138  -74.3508 N.am      1 UNK        -0.4739 
      5 CA        -81.0866   27.1859  -74.6884 C.3       1 UNK         0.0864 
      6 C6        -80.3352   27.7094  -73.4399 C.3       11 UNK        -0.0881 
      7 S7        -80.1998   26.5131  -72.0639 S.3       11 UNK        -0.2682 
      8 C8        -80.0604   27.6265  -70.6225 C.3       11 UNK         0.0289 
      9 C9        -78.7468   28.4039  -70.5902 C.ar      11 UNK        -0.0687 
     10 C10       -78.6155   29.5887  -71.3222 C.ar      11 UNK        -0.0823 
     11 C11       -77.4257   30.3179  -71.2865 C.ar      11 UNK        -0.0830 
     12 C12       -76.3720   29.8769  -70.4851 C.ar      11 UNK        -0.1021 
     13 C13       -76.4798   28.6949  -69.7498 C.ar      11 UNK        -0.0753 
     14 C14       -77.6722   27.9608  -69.8068 C.ar      11 UNK        -0.0933 
     15 C15       -75.3214   28.2388  -68.8693 C.3       11 UNK         0.0166 
     16 S16       -74.0431   27.3136  -69.7878 S.3       11 UNK        -0.2615 
     17 C17       -73.0976   28.6319  -70.6375 C.3       11 UNK        -0.0865 
     18 CA        -73.1466   28.5035  -72.1911 C.3       10 UNK         0.0862 
     19 C         -72.5972   29.7553  -72.9437 C.2       10 UNK         0.5551 
     20 N         -72.1536   29.6199  -74.1896 N.am      10 UNK        -0.7319 
     21 O         -72.5861   30.8601  -72.4070 O.2       10 UNK        -0.5018 
     22 N         -72.5783   27.2287  -72.6710 N.am      10 UNK        -0.4509 
     23 C         -71.2840   26.8881  -72.5986 C.2       10 UNK         0.4899 
     24 O         -70.4194   27.5781  -72.0570 O.2       10 UNK        -0.4839 
     25 CA        -70.8565   25.5549  -73.2358 C.3       9 UNK         0.0222 
     26 CB        -70.7706   24.4645  -72.1546 C.3       9 UNK        -0.1966 
     27 N         -71.6688   25.0519  -74.3513 N.am      9 UNK        -0.4218 
     28 C         -72.0229   25.6959  -75.4737 C.2       9 UNK         0.5020 
     29 O         -71.8793   26.9081  -75.6531 O.2       9 UNK        -0.5274 
     30 CA        -72.5866   24.8081  -76.5988 C.3       8 UNK         0.0270 
     31 CB        -73.3978   23.6001  -76.0838 C.3       8 UNK        -0.1976 
     32 N         -73.4345   25.5748  -77.5123 N.am      8 UNK        -0.4313 
     33 C         -73.2530   25.6583  -78.8353 C.2       8 UNK         0.5041 
     34 O         -72.2501   25.2173  -79.4015 O.2       8 UNK        -0.5577 
     35 CA        -74.3605   26.2769  -79.7111 C.3       7 UNK         0.0284 
     36 CB        -74.8630   25.2210  -80.7247 C.3       7 UNK        -0.1958 
     37 N         -75.5035   26.8484  -78.9806 N.am      7 UNK        -0.4454 
     38 C         -76.4125   27.6549  -79.5538 C.2       7 UNK         0.5089 
     39 O         -76.3234   28.0726  -80.7096 O.2       7 UNK        -0.5125 
     40 CA        -77.6477   28.0568  -78.7244 C.3       6 UNK         0.0408 
     41 CB        -78.7338   26.9814  -78.8576 C.3       6 UNK        -0.1791 
     42 N         -77.3634   28.3004  -77.3088 N.am      6 UNK        -0.4762 
     43 C         -76.5559   29.2772  -76.8702 C.2       6 UNK         0.5007 
     44 O         -76.0476   30.1129  -77.6196 O.2       6 UNK        -0.5032 
     45 CA        -76.2405   29.3656  -75.3593 C.3       5 UNK         0.0783 
     46 C46       -77.0251   30.5451  -74.7214 C.3       11 UNK        -0.0857 
     47 S47       -76.0541   31.3874  -73.4317 S.3       11 UNK        -0.2512 
     48 C48       -77.2704   31.5950  -72.0945 C.3       11 UNK         0.0225 
     49 N         -76.3921   28.1270  -74.5748 N.am      5 UNK        -0.4615 
     50 C         -75.9203   26.9073  -74.8759 C.2       4 UNK         0.5053 
     51 O         -75.3968   26.6191  -75.9508 O.2       4 UNK        -0.5105 
     52 CA        -76.0216   25.8152  -73.8044 C.3       4 UNK         0.0263 
     53 CB        -76.4595   26.3153  -72.4203 C.3       4 UNK        -0.1981 
     54 N         -76.9417   24.7724  -74.2438 N.am      4 UNK        -0.4224 
     55 C         -76.8185   23.4765  -73.9240 C.2       3 UNK         0.4895 
     56 O         -75.8433   23.0174  -73.3271 O.2       3 UNK        -0.5091 
     57 CA        -77.9739   22.5213  -74.2782 C.3       3 UNK         0.0250 
     58 CB        -78.5537   21.8827  -73.0034 C.3       3 UNK        -0.1996 
     59 N         -79.0653   23.1718  -75.0027 N.am      3 UNK        -0.4254 
     60 C         -79.1183   23.3276  -76.3303 C.2       2 UNK         0.5004 
     61 O         -78.2537   22.9233  -77.1075 O.2       2 UNK        -0.5226 
     62 CA        -80.3454   24.0713  -76.8823 C.3       2 UNK         0.0269 
     63 CB        -81.4530   23.0718  -77.2527 C.3       2 UNK        -0.1926 
     64 N         -80.9012   25.0876  -75.9799 N.am      2 UNK        -0.4687 
     65 C         -80.2595   26.1677  -75.5073 C.2       1 UNK         0.5165 
     66 O         -79.0605   26.3797  -75.7034 O.2       1 UNK        -0.5079 
     67 H67       -85.5723   27.0591  -74.5784 H         1 UNK         0.0900 
     68 H68       -84.7206   25.8639  -73.5988 H         1 UNK         0.0900 
     69 H69       -85.2003   25.4695  -75.2511 H         1 UNK         0.0900 
     70 H70       -82.5254   26.2998  -73.4324 H         1 UNK         0.2959 
     71 H71       -81.1926   28.0429  -75.3579 H         1 UNK         0.1079 
     72 H72       -80.8693   28.5869  -73.0742 H         1 UNK         0.0837 
     73 H73       -79.3362   28.0601  -73.7038 H         1 UNK         0.0837 
     74 H74       -80.9038   28.3187  -70.6147 H         1 UNK         0.0685 
     75 H75       -80.1570   27.0283  -69.7153 H         1 UNK         0.0685 
     76 H76       -79.4419   29.9500  -71.9168 H         1 UNK         0.1434 
     77 H77       -75.4673   30.4649  -70.4417 H         1 UNK         0.1329 
     78 H78       -77.7662   27.0470  -69.2364 H         1 UNK         0.1335 
     79 H79       -75.6996   27.5974  -68.0719 H         1 UNK         0.0680 
     80 H80       -74.8673   29.0964  -68.3706 H         1 UNK         0.0680 
     81 H81       -72.0666   28.5939  -70.2845 H         1 UNK         0.1032 
     82 H82       -73.4660   29.6038  -70.3136 H         1 UNK         0.1032 
     83 H83       -74.1959   28.4937  -72.4775 H         1 UNK         0.0461 
     84 H84       -72.1255   28.7090  -74.6349 H         1 UNK         0.3453 
     85 H85       -71.8008   30.4279  -74.6763 H         1 UNK         0.3453 
     86 H86       -73.2081   26.6038  -73.1472 H         1 UNK         0.2984 
     87 H87       -69.8523   25.7104  -73.6351 H         1 UNK         0.0554 
     88 H88       -70.3293   23.5471  -72.5444 H         1 UNK         0.0847 
     89 H89       -71.7541   24.2213  -71.7498 H         1 UNK         0.0847 
     90 H90       -70.1476   24.7881  -71.3192 H         1 UNK         0.0847 
     91 H91       -71.8675   24.0622  -74.3212 H         1 UNK         0.3141 
     92 H92       -71.7148   24.4185  -77.1278 H         1 UNK         0.0743 
     93 H93       -73.8172   23.0297  -76.9130 H         1 UNK         0.0784 
     94 H94       -72.7830   22.9058  -75.5106 H         1 UNK         0.0784 
     95 H95       -74.2283   23.9138  -75.4527 H         1 UNK         0.0784 
     96 H96       -74.2143   26.0476  -77.0565 H         1 UNK         0.3213 
     97 H97       -73.8800   27.0860  -80.2655 H         1 UNK         0.0855 
     98 H98       -75.3997   24.4142  -80.2243 H         1 UNK         0.0814 
     99 H99       -74.0361   24.7692  -81.2744 H         1 UNK         0.0814 
    100 H100      -75.5295   25.6525  -81.4708 H         1 UNK         0.0814 
    101 H101      -75.6287   26.5909  -78.0078 H         1 UNK         0.3105 
    102 H102      -78.0413   28.9845  -79.1453 H         1 UNK         0.0547 
    103 H103      -78.3953   26.0318  -78.4432 H         1 UNK         0.0837 
    104 H104      -79.6508   27.2727  -78.3459 H         1 UNK         0.0837 
    105 H105      -78.9884   26.8087  -79.9042 H         1 UNK         0.0837 
    106 H106      -77.7549   27.6442  -76.6399 H         1 UNK         0.3020 
    107 H107      -75.1741   29.6014  -75.3272 H         1 UNK         0.1245 
    108 H108      -77.2727   31.3180  -75.4527 H         1 UNK         0.0781 
    109 H109      -77.9823   30.2041  -74.3237 H         1 UNK         0.0781 
    110 H110      -76.9314   32.3937  -71.4332 H         1 UNK         0.0836 
    111 H111      -78.2241   31.9265  -72.5081 H         1 UNK         0.0836 
    112 H112      -76.8118   28.2492  -73.6649 H         1 UNK         0.3022 
    113 H113      -75.0170   25.3998  -73.7081 H         1 UNK         0.0747 
    114 H114      -76.4371   25.5150  -71.6805 H         1 UNK         0.0793 
    115 H115      -75.8108   27.1029  -72.0508 H         1 UNK         0.0793 
    116 H116      -77.4697   26.7122  -72.4460 H         1 UNK         0.0793 
    117 H117      -77.7394   25.0866  -74.7875 H         1 UNK         0.3047 
    118 H118      -77.5552   21.7250  -74.8974 H         1 UNK         0.0822 
    119 H119      -79.3459   21.1720  -73.2399 H         1 UNK         0.0807 
    120 H120      -78.9654   22.6338  -72.3278 H         1 UNK         0.0807 
    121 H121      -77.7865   21.3358  -72.4535 H         1 UNK         0.0807 
    122 H122      -79.8188   23.5523  -74.4479 H         1 UNK         0.2946 
    123 H123      -80.0328   24.5761  -77.7966 H         1 UNK         0.1144 
    124 H124      -82.2898   23.5696  -77.7433 H         1 UNK         0.0793 
    125 H125      -81.8384   22.5515  -76.3749 H         1 UNK         0.0793 
    126 H126      -81.0806   22.3138  -77.9436 H         1 UNK         0.0793 
    127 H127      -81.8838   25.0071  -75.7622 H         1 UNK         0.2896 
@<TRIPOS>BOND
     1    1    2 1    
     2    1   67 1    
     3    1   68 1    
     4    1   69 1    
     5    2    3 2    
     6    2    4 am   BACKBONE|DICT|INTERRES
     7    4    5 1    
     8    4   70 1    
     9    5    6 1    
    10    5   65 1    
    11    5   71 1    
    12    6    7 1    
    13    6   72 1    
    14    6   73 1    
    15    7    8 1    
    16    8    9 1    
    17    8   74 1    
    18    8   75 1    
    19    9   10 ar   
    20    9   14 ar   
    21   10   11 ar   
    22   10   76 1    
    23   11   12 ar   
    24   11   48 1    
    25   12   13 ar   
    26   12   77 1    
    27   13   14 ar   
    28   13   15 1    
    29   14   78 1    
    30   15   16 1    
    31   15   79 1    
    32   15   80 1    
    33   16   17 1    
    34   17   18 1    
    35   17   81 1    
    36   17   82 1    
    37   18   19 1    
    38   18   22 1    
    39   18   83 1    
    40   19   20 am   BACKBONE|DICT|INTERRES
    41   19   21 2    
    42   20   84 1    
    43   20   85 1    
    44   22   23 am   BACKBONE|DICT|INTERRES
    45   22   86 1    
    46   23   24 2    
    47   23   25 1    
    48   25   26 1    
    49   25   27 1    
    50   25   87 1    
    51   26   88 1    
    52   26   89 1    
    53   26   90 1    
    54   27   28 am   BACKBONE|DICT|INTERRES
    55   27   91 1    
    56   28   29 2    
    57   28   30 1    
    58   30   31 1    
    59   30   32 1    
    60   30   92 1    
    61   31   93 1    
    62   31   94 1    
    63   31   95 1    
    64   32   33 am   BACKBONE|DICT|INTERRES
    65   32   96 1    
    66   33   34 2    
    67   33   35 1    
    68   35   36 1    
    69   35   37 1    
    70   35   97 1    
    71   36   98 1    
    72   36   99 1    
    73   36  100 1    
    74   37   38 am   BACKBONE|DICT|INTERRES
    75   37  101 1    
    76   38   39 2    
    77   38   40 1    
    78   40   41 1    
    79   40   42 1    
    80   40  102 1    
    81   41  103 1    
    82   41  104 1    
    83   41  105 1    
    84   42   43 am   BACKBONE|DICT|INTERRES
    85   42  106 1    
    86   43   44 2    
    87   43   45 1    
    88   45   46 1    
    89   45   49 1    
    90   45  107 1    
    91   46   47 1    
    92   46  108 1    
    93   46  109 1    
    94   47   48 1    
    95   48  110 1    
    96   48  111 1    
    97   49   50 am   BACKBONE|DICT|INTERRES
    98   49  112 1    
    99   50   51 2    
   100   50   52 1    
   101   52   53 1    
   102   52   54 1    
   103   52  113 1    
   104   53  114 1    
   105   53  115 1    
   106   53  116 1    
   107   54   55 am   BACKBONE|DICT|INTERRES
   108   54  117 1    
   109   55   56 2    
   110   55   57 1    
   111   57   58 1    
   112   57   59 1    
   113   57  118 1    
   114   58  119 1    
   115   58  120 1    
   116   58  121 1    
   117   59   60 am   BACKBONE|DICT|INTERRES
   118   59  122 1    
   119   60   61 2    
   120   60   62 1    
   121   62   63 1    
   122   62   64 1    
   123   62  123 1    
   124   63  124 1    
   125   63  125 1    
   126   63  126 1    
   127   64   65 am   BACKBONE|DICT|INTERRES
   128   64  127 1    
   129   65   66 2    
@<TRIPOS>SUBSTRUCTURE
     1 UNK         1 GROUP             0       ****    0 ROOT    
