@<TRIPOS>MOLECULE
3R135
127   129    1
SMALL
USER_CHARGES


@<TRIPOS>ATOM
      1 CA        -82.4642   28.5530  -71.9129 C.3       0 UNK        -0.1998 
      2 C         -81.8277   27.9062  -73.1328 C.2       0 UNK         0.4909 
      3 O         -81.4481   26.7375  -73.0745 O.2       0 UNK        -0.5240 
      4 N         -81.7239   28.6526  -74.2432 N.am      1 UNK        -0.4739 
      5 CA        -81.0826   28.2575  -75.5123 C.3       1 UNK         0.0864 
      6 C6        -79.5407   28.0931  -75.3797 C.3       11 UNK        -0.0881 
      7 S7        -78.7155   29.6914  -75.0645 S.3       11 UNK        -0.2682 
      8 C8        -78.4390   29.6595  -73.2646 C.3       11 UNK         0.0289 
      9 C9        -77.3235   28.7047  -72.8690 C.ar      11 UNK        -0.0687 
     10 C10       -77.6163   27.5006  -72.2207 C.ar      11 UNK        -0.0823 
     11 C11       -76.5873   26.6304  -71.8477 C.ar      11 UNK        -0.0830 
     12 C12       -75.2597   26.9776  -72.1177 C.ar      11 UNK        -0.1021 
     13 C13       -74.9570   28.1740  -72.7714 C.ar      11 UNK        -0.0753 
     14 C14       -75.9929   29.0357  -73.1424 C.ar      11 UNK        -0.0933 
     15 C15       -73.5146   28.5069  -73.1164 C.3       11 UNK         0.0166 
     16 S16       -72.5748   29.1328  -71.6918 S.3       11 UNK        -0.2615 
     17 C17       -73.2432   30.8228  -71.4811 C.3       11 UNK        -0.0865 
     18 CA        -72.4134   31.9311  -72.1829 C.3       10 UNK         0.0862 
     19 C         -70.9859   32.0839  -71.5751 C.2       10 UNK         0.5551 
     20 N         -69.9146   31.7974  -72.3075 N.am      10 UNK        -0.7319 
     21 O         -70.8528   32.4840  -70.4210 O.2       10 UNK        -0.5018 
     22 N         -72.4407   31.7800  -73.6445 N.am      10 UNK        -0.4509 
     23 C         -72.1779   32.7568  -74.5207 C.2       10 UNK         0.4899 
     24 O         -72.0322   33.9361  -74.1952 O.2       10 UNK        -0.4839 
     25 CA        -72.0623   32.3618  -76.0097 C.3       9 UNK         0.0222 
     26 CB        -70.9899   33.1977  -76.7398 C.3       9 UNK        -0.1966 
     27 N         -71.8447   30.9296  -76.2714 N.am      9 UNK        -0.4218 
     28 C         -70.8455   30.1468  -75.8400 C.2       9 UNK         0.5020 
     29 O         -69.9901   30.5199  -75.0342 O.2       9 UNK        -0.5274 
     30 CA        -70.8131   28.7034  -76.3918 C.3       8 UNK         0.0270 
     31 CB        -69.6740   27.8658  -75.7800 C.3       8 UNK        -0.1976 
     32 N         -72.0726   27.9695  -76.2190 N.am      8 UNK        -0.4313 
     33 C         -73.2157   28.1704  -76.8902 C.2       8 UNK         0.5041 
     34 O         -73.3605   29.0712  -77.7193 O.2       8 UNK        -0.5577 
     35 CA        -74.3930   27.2295  -76.5566 C.3       7 UNK         0.0284 
     36 CB        -75.4551   27.1825  -77.6749 C.3       7 UNK        -0.1958 
     37 N         -73.9816   25.8700  -76.1751 N.am      7 UNK        -0.4454 
     38 C         -73.2988   24.9808  -76.9168 C.2       7 UNK         0.5089 
     39 O         -72.8569   25.2105  -78.0424 O.2       7 UNK        -0.5125 
     40 CA        -73.0658   23.5908  -76.2895 C.3       6 UNK         0.0408 
     41 CB        -71.6808   23.5332  -75.6245 C.3       6 UNK        -0.1791 
     42 N         -74.0923   23.2173  -75.3079 N.am      6 UNK        -0.4762 
     43 C         -75.3691   22.9421  -75.6159 C.2       6 UNK         0.5007 
     44 O         -75.7890   22.8776  -76.7747 O.2       6 UNK        -0.5032 
     45 CA        -76.3375   22.7888  -74.4254 C.3       5 UNK         0.0783 
     46 C46       -76.5499   24.1655  -73.7499 C.3       11 UNK        -0.0857 
     47 S47       -77.6812   24.1138  -72.3190 S.3       11 UNK        -0.2512 
     48 C48       -76.9051   25.3018  -71.1734 C.3       11 UNK         0.0225 
     49 N         -77.6074   22.2208  -74.8738 N.am      5 UNK        -0.4615 
     50 C         -77.8902   20.9222  -74.9886 C.2       4 UNK         0.5053 
     51 O         -77.1023   20.0263  -74.6790 O.2       4 UNK        -0.5105 
     52 CA        -79.2976   20.5754  -75.5231 C.3       4 UNK         0.0263 
     53 CB        -79.5797   19.0608  -75.5082 C.3       4 UNK        -0.1981 
     54 N         -80.3744   21.2648  -74.7989 N.am      4 UNK        -0.4224 
     55 C         -80.7070   22.5556  -74.9363 C.2       3 UNK         0.4895 
     56 O         -80.1072   23.3367  -75.6795 O.2       3 UNK        -0.5091 
     57 CA        -81.8718   23.0585  -74.0654 C.3       3 UNK         0.0250 
     58 CB        -81.3835   23.3917  -72.6469 C.3       3 UNK        -0.1996 
     59 N         -82.5020   24.2480  -74.6425 N.am      3 UNK        -0.4254 
     60 C         -83.2817   24.2344  -75.7345 C.2       2 UNK         0.5004 
     61 O         -83.6297   23.2002  -76.3072 O.2       2 UNK        -0.5226 
     62 CA        -83.7789   25.5861  -76.2828 C.3       2 UNK         0.0269 
     63 CB        -85.2581   25.8017  -75.9217 C.3       2 UNK        -0.1926 
     64 N         -83.0040   26.7351  -75.8089 N.am      2 UNK        -0.4687 
     65 C         -81.7604   27.0466  -76.2036 C.2       1 UNK         0.5165 
     66 O         -81.1691   26.4360  -77.0949 O.2       1 UNK        -0.5079 
     67 H67       -81.7612   28.5508  -71.0804 H         1 UNK         0.0900 
     68 H68       -83.3503   27.9949  -71.6121 H         1 UNK         0.0900 
     69 H69       -82.7598   29.5843  -72.1047 H         1 UNK         0.0900 
     70 H70       -82.0763   29.6001  -74.2270 H         1 UNK         0.2959 
     71 H71       -81.2608   29.0842  -76.2021 H         1 UNK         0.1079 
     72 H72       -79.2846   27.3678  -74.6062 H         1 UNK         0.0837 
     73 H73       -79.1061   27.7054  -76.3027 H         1 UNK         0.0837 
     74 H74       -79.3669   29.4106  -72.7504 H         1 UNK         0.0685 
     75 H75       -78.1753   30.6660  -72.9367 H         1 UNK         0.0685 
     76 H76       -78.6446   27.2304  -72.0188 H         1 UNK         0.1434 
     77 H77       -74.4581   26.3090  -71.8342 H         1 UNK         0.1329 
     78 H78       -75.7695   29.9616  -73.6547 H         1 UNK         0.1335 
     79 H79       -73.0195   27.6051  -73.4781 H         1 UNK         0.0680 
     80 H80       -73.4730   29.2258  -73.9340 H         1 UNK         0.0680 
     81 H81       -73.3011   31.0270  -70.4103 H         1 UNK         0.1032 
     82 H82       -74.2754   30.8572  -71.8294 H         1 UNK         0.1032 
     83 H83       -72.9188   32.8729  -71.9600 H         1 UNK         0.0461 
     84 H84       -68.9979   31.9054  -71.9045 H         1 UNK         0.3453 
     85 H85       -70.0119   31.4379  -73.2518 H         1 UNK         0.3453 
     86 H86       -72.4929   30.8351  -73.9892 H         1 UNK         0.2984 
     87 H87       -73.0281   32.6019  -76.4562 H         1 UNK         0.0554 
     88 H88       -70.9378   32.9407  -77.7978 H         1 UNK         0.0847 
     89 H89       -69.9996   33.0460  -76.3087 H         1 UNK         0.0847 
     90 H90       -71.2104   34.2642  -76.6807 H         1 UNK         0.0847 
     91 H91       -72.5093   30.4866  -76.9065 H         1 UNK         0.3141 
     92 H92       -70.6201   28.7864  -77.4634 H         1 UNK         0.0743 
     93 H93       -69.7983   27.7411  -74.7034 H         1 UNK         0.0784 
     94 H94       -69.6221   26.8744  -76.2308 H         1 UNK         0.0784 
     95 H95       -68.7061   28.3421  -75.9431 H         1 UNK         0.0784 
     96 H96       -72.0489   27.2052  -75.5611 H         1 UNK         0.3213 
     97 H97       -74.8772   27.6586  -75.6786 H         1 UNK         0.0855 
     98 H98       -75.0367   26.8209  -78.6147 H         1 UNK         0.0814 
     99 H99       -75.8708   28.1733  -77.8631 H         1 UNK         0.0814 
    100 H100      -76.2868   26.5315  -77.4046 H         1 UNK         0.0814 
    101 H101      -74.2836   25.5641  -75.2621 H         1 UNK         0.3105 
    102 H102      -73.0853   22.8572  -77.0984 H         1 UNK         0.0547 
    103 H103      -70.8952   23.7868  -76.3380 H         1 UNK         0.0837 
    104 H104      -71.5994   24.2310  -74.7903 H         1 UNK         0.0837 
    105 H105      -71.4619   22.5334  -75.2493 H         1 UNK         0.0837 
    106 H106      -73.8107   23.2240  -74.3372 H         1 UNK         0.3020 
    107 H107      -75.8811   22.1075  -73.7034 H         1 UNK         0.1245 
    108 H108      -76.9459   24.8943  -74.4609 H         1 UNK         0.0781 
    109 H109      -75.5905   24.5561  -73.4109 H         1 UNK         0.0781 
    110 H110      -76.0019   24.8533  -70.7566 H         1 UNK         0.0836 
    111 H111      -77.5767   25.4733  -70.3310 H         1 UNK         0.0836 
    112 H112      -78.3174   22.8821  -75.1753 H         1 UNK         0.3022 
    113 H113      -79.3238   20.9027  -76.5648 H         1 UNK         0.0747 
    114 H114      -80.5527   18.8334  -75.9443 H         1 UNK         0.0793 
    115 H115      -78.8336   18.5175  -76.0898 H         1 UNK         0.0793 
    116 H116      -79.5619   18.6568  -74.4952 H         1 UNK         0.0793 
    117 H117      -80.8864   20.7055  -74.1315 H         1 UNK         0.3047 
    118 H118      -82.6226   22.2679  -74.0002 H         1 UNK         0.0822 
    119 H119      -80.9181   22.5268  -72.1726 H         1 UNK         0.0807 
    120 H120      -82.2074   23.7092  -72.0076 H         1 UNK         0.0807 
    121 H121      -80.6445   24.1933  -72.6578 H         1 UNK         0.0807 
    122 H122      -82.2236   25.1407  -74.2490 H         1 UNK         0.2946 
    123 H123      -83.6932   25.5406  -77.3711 H         1 UNK         0.1144 
    124 H124      -85.8737   24.9791  -76.2886 H         1 UNK         0.0793 
    125 H125      -85.6468   26.7175  -76.3674 H         1 UNK         0.0793 
    126 H126      -85.4056   25.8625  -74.8426 H         1 UNK         0.0793 
    127 H127      -83.4168   27.2935  -75.0757 H         1 UNK         0.2896 
@<TRIPOS>BOND
     1    1    2 1    
     2    1   67 1    
     3    1   68 1    
     4    1   69 1    
     5    2    3 2    
     6    2    4 am   BACKBONE|DICT|INTERRES
     7    4    5 1    
     8    4   70 1    
     9    5    6 1    
    10    5   65 1    
    11    5   71 1    
    12    6    7 1    
    13    6   72 1    
    14    6   73 1    
    15    7    8 1    
    16    8    9 1    
    17    8   74 1    
    18    8   75 1    
    19    9   10 ar   
    20    9   14 ar   
    21   10   11 ar   
    22   10   76 1    
    23   11   12 ar   
    24   11   48 1    
    25   12   13 ar   
    26   12   77 1    
    27   13   14 ar   
    28   13   15 1    
    29   14   78 1    
    30   15   16 1    
    31   15   79 1    
    32   15   80 1    
    33   16   17 1    
    34   17   18 1    
    35   17   81 1    
    36   17   82 1    
    37   18   19 1    
    38   18   22 1    
    39   18   83 1    
    40   19   20 am   BACKBONE|DICT|INTERRES
    41   19   21 2    
    42   20   84 1    
    43   20   85 1    
    44   22   23 am   BACKBONE|DICT|INTERRES
    45   22   86 1    
    46   23   24 2    
    47   23   25 1    
    48   25   26 1    
    49   25   27 1    
    50   25   87 1    
    51   26   88 1    
    52   26   89 1    
    53   26   90 1    
    54   27   28 am   BACKBONE|DICT|INTERRES
    55   27   91 1    
    56   28   29 2    
    57   28   30 1    
    58   30   31 1    
    59   30   32 1    
    60   30   92 1    
    61   31   93 1    
    62   31   94 1    
    63   31   95 1    
    64   32   33 am   BACKBONE|DICT|INTERRES
    65   32   96 1    
    66   33   34 2    
    67   33   35 1    
    68   35   36 1    
    69   35   37 1    
    70   35   97 1    
    71   36   98 1    
    72   36   99 1    
    73   36  100 1    
    74   37   38 am   BACKBONE|DICT|INTERRES
    75   37  101 1    
    76   38   39 2    
    77   38   40 1    
    78   40   41 1    
    79   40   42 1    
    80   40  102 1    
    81   41  103 1    
    82   41  104 1    
    83   41  105 1    
    84   42   43 am   BACKBONE|DICT|INTERRES
    85   42  106 1    
    86   43   44 2    
    87   43   45 1    
    88   45   46 1    
    89   45   49 1    
    90   45  107 1    
    91   46   47 1    
    92   46  108 1    
    93   46  109 1    
    94   47   48 1    
    95   48  110 1    
    96   48  111 1    
    97   49   50 am   BACKBONE|DICT|INTERRES
    98   49  112 1    
    99   50   51 2    
   100   50   52 1    
   101   52   53 1    
   102   52   54 1    
   103   52  113 1    
   104   53  114 1    
   105   53  115 1    
   106   53  116 1    
   107   54   55 am   BACKBONE|DICT|INTERRES
   108   54  117 1    
   109   55   56 2    
   110   55   57 1    
   111   57   58 1    
   112   57   59 1    
   113   57  118 1    
   114   58  119 1    
   115   58  120 1    
   116   58  121 1    
   117   59   60 am   BACKBONE|DICT|INTERRES
   118   59  122 1    
   119   60   61 2    
   120   60   62 1    
   121   62   63 1    
   122   62   64 1    
   123   62  123 1    
   124   63  124 1    
   125   63  125 1    
   126   63  126 1    
   127   64   65 am   BACKBONE|DICT|INTERRES
   128   64  127 1    
   129   65   66 2    
@<TRIPOS>SUBSTRUCTURE
     1 UNK         1 GROUP             0       ****    0 ROOT    
