@<TRIPOS>MOLECULE
3R135
127   129    1
SMALL
USER_CHARGES


@<TRIPOS>ATOM
      1 CA        -85.3500   25.3615  -71.2497 C.3       0 UNK        -0.1998 
      2 C         -84.3363   26.2293  -71.9804 C.2       0 UNK         0.4909 
      3 O         -84.7151   27.2317  -72.5867 O.2       0 UNK        -0.5240 
      4 N         -83.0517   25.8536  -71.9202 N.am      1 UNK        -0.4739 
      5 CA        -81.9342   26.5472  -72.5744 C.3       1 UNK         0.0864 
      6 C6        -80.5688   26.0052  -72.0815 C.3       11 UNK        -0.0881 
      7 S7        -80.2114   26.5629  -70.3806 S.3       11 UNK        -0.2682 
      8 C8        -78.3822   26.6090  -70.3618 C.3       11 UNK         0.0289 
      9 C9        -77.7120   27.7670  -71.1101 C.ar      11 UNK        -0.0687 
     10 C10       -78.4063   28.6270  -71.9719 C.ar      11 UNK        -0.0823 
     11 C11       -77.7304   29.6098  -72.6982 C.ar      11 UNK        -0.0830 
     12 C12       -76.3554   29.7728  -72.5243 C.ar      11 UNK        -0.1021 
     13 C13       -75.6488   28.9470  -71.6473 C.ar      11 UNK        -0.0753 
     14 C14       -76.3319   27.9436  -70.9519 C.ar      11 UNK        -0.0933 
     15 C15       -74.1397   29.0917  -71.5091 C.3       11 UNK         0.0166 
     16 S16       -73.6266   30.7932  -71.1167 S.3       11 UNK        -0.2615 
     17 C17       -71.8113   30.6434  -71.2262 C.3       11 UNK        -0.0865 
     18 CA        -71.2507   31.0923  -72.6023 C.3       10 UNK         0.0862 
     19 C         -69.7059   31.2439  -72.5299 C.2       10 UNK         0.5551 
     20 N         -69.2078   32.4620  -72.3685 N.am      10 UNK        -0.7319 
     21 O         -68.9639   30.2647  -72.5660 O.2       10 UNK        -0.5018 
     22 N         -71.6764   30.1834  -73.6786 N.am      10 UNK        -0.4509 
     23 C         -71.4667   30.3685  -74.9882 C.2       10 UNK         0.4899 
     24 O         -70.9542   31.3884  -75.4520 O.2       10 UNK        -0.4839 
     25 CA        -71.9372   29.2603  -75.9581 C.3       9 UNK         0.0222 
     26 CB        -70.9314   29.0304  -77.1058 C.3       9 UNK        -0.1966 
     27 N         -72.3108   27.9787  -75.3384 N.am      9 UNK        -0.4218 
     28 C         -71.5210   27.1404  -74.6475 C.2       9 UNK         0.5020 
     29 O         -70.3440   27.3713  -74.3718 O.2       9 UNK        -0.5274 
     30 CA        -72.1469   25.8173  -74.1780 C.3       8 UNK         0.0270 
     31 CB        -73.0075   26.0214  -72.9219 C.3       8 UNK        -0.1976 
     32 N         -72.9377   25.1622  -75.2218 N.am      8 UNK        -0.4313 
     33 C         -72.4018   24.5178  -76.2691 C.2       8 UNK         0.5041 
     34 O         -71.1896   24.4040  -76.4569 O.2       8 UNK        -0.5577 
     35 CA        -73.3746   23.8789  -77.2742 C.3       7 UNK         0.0284 
     36 CB        -73.9548   22.5705  -76.7149 C.3       7 UNK        -0.1958 
     37 N         -74.4601   24.7786  -77.6658 N.am      7 UNK        -0.4454 
     38 C         -74.2925   25.8927  -78.3927 C.2       7 UNK         0.5089 
     39 O         -73.2098   26.2636  -78.8466 O.2       7 UNK        -0.5125 
     40 CA        -75.5451   26.7458  -78.6528 C.3       6 UNK         0.0408 
     41 CB        -76.3101   26.2283  -79.8812 C.3       6 UNK        -0.1791 
     42 N         -76.4473   26.7999  -77.5018 N.am      6 UNK        -0.4762 
     43 C         -76.1516   27.3754  -76.3270 C.2       6 UNK         0.5007 
     44 O         -75.0756   27.9195  -76.0758 O.2       6 UNK        -0.5032 
     45 CA        -77.2243   27.2618  -75.2282 C.3       5 UNK         0.0783 
     46 C46       -78.4249   28.2139  -75.4787 C.3       11 UNK        -0.0857 
     47 S47       -77.9939   29.9901  -75.4210 S.3       11 UNK        -0.2512 
     48 C48       -78.4731   30.4506  -73.7238 C.3       11 UNK         0.0225 
     49 N         -77.6585   25.8695  -75.0704 N.am      5 UNK        -0.4615 
     50 C         -76.8588   24.8685  -74.6664 C.2       4 UNK         0.5053 
     51 O         -75.6850   25.0260  -74.3367 O.2       4 UNK        -0.5105 
     52 CA        -77.4324   23.4396  -74.6713 C.3       4 UNK         0.0263 
     53 CB        -78.0117   23.0880  -73.2935 C.3       4 UNK        -0.1981 
     54 N         -78.4457   23.2148  -75.7027 N.am      4 UNK        -0.4224 
     55 C         -78.2459   23.3488  -77.0221 C.2       3 UNK         0.4895 
     56 O         -77.1496   23.5955  -77.5262 O.2       3 UNK        -0.5091 
     57 CA        -79.4879   23.2504  -77.9284 C.3       3 UNK         0.0250 
     58 CB        -79.6097   21.8355  -78.5152 C.3       3 UNK        -0.1996 
     59 N         -80.7555   23.6203  -77.2784 N.am      3 UNK        -0.4254 
     60 C         -81.0140   24.7977  -76.6872 C.2       2 UNK         0.5004 
     61 O         -80.1732   25.6922  -76.5908 O.2       2 UNK        -0.5226 
     62 CA        -82.4183   25.0093  -76.0829 C.3       2 UNK         0.0269 
     63 CB        -83.3840   23.8248  -76.2963 C.3       2 UNK        -0.1926 
     64 N         -82.3322   25.2934  -74.6478 N.am      2 UNK        -0.4687 
     65 C         -82.0322   26.4862  -74.1123 C.2       1 UNK         0.5165 
     66 O         -81.8597   27.5139  -74.7680 O.2       1 UNK        -0.5079 
     67 H67       -86.0858   24.9719  -71.9526 H         1 UNK         0.0900 
     68 H68       -84.8783   24.5160  -70.7492 H         1 UNK         0.0900 
     69 H69       -85.8749   25.9502  -70.4978 H         1 UNK         0.0900 
     70 H70       -82.8024   25.0381  -71.3786 H         1 UNK         0.2959 
     71 H71       -82.0027   27.6047  -72.3077 H         1 UNK         0.1079 
     72 H72       -80.5638   24.9149  -72.0952 H         1 UNK         0.0837 
     73 H73       -79.7553   26.3157  -72.7397 H         1 UNK         0.0837 
     74 H74       -78.0054   25.6666  -70.7622 H         1 UNK         0.0685 
     75 H75       -78.0680   26.6454  -69.3177 H         1 UNK         0.0685 
     76 H76       -79.4701   28.5218  -72.1177 H         1 UNK         0.1434 
     77 H77       -75.8291   30.5244  -73.0973 H         1 UNK         0.1329 
     78 H78       -75.7832   27.2814  -70.2959 H         1 UNK         0.1335 
     79 H79       -73.6878   28.7982  -72.4543 H         1 UNK         0.0680 
     80 H80       -73.7510   28.4170  -70.7447 H         1 UNK         0.0680 
     81 H81       -71.5017   29.6229  -70.9921 H         1 UNK         0.1032 
     82 H82       -71.3987   31.2665  -70.4299 H         1 UNK         0.1032 
     83 H83       -71.6722   32.0729  -72.8336 H         1 UNK         0.0461 
     84 H84       -68.2086   32.5786  -72.3009 H         1 UNK         0.3453 
     85 H85       -69.8098   33.2699  -72.3274 H         1 UNK         0.3453 
     86 H86       -72.0690   29.3031  -73.3886 H         1 UNK         0.2984 
     87 H87       -72.8560   29.6398  -76.4070 H         1 UNK         0.0554 
     88 H88       -70.7671   29.9452  -77.6764 H         1 UNK         0.0847 
     89 H89       -71.2952   28.2768  -77.8049 H         1 UNK         0.0847 
     90 H90       -69.9610   28.7016  -76.7328 H         1 UNK         0.0847 
     91 H91       -73.2806   27.7116  -75.4992 H         1 UNK         0.3141 
     92 H92       -71.3270   25.1488  -73.9058 H         1 UNK         0.0743 
     93 H93       -72.4469   26.5326  -72.1384 H         1 UNK         0.0784 
     94 H94       -73.9001   26.6090  -73.1364 H         1 UNK         0.0784 
     95 H95       -73.3365   25.0660  -72.5128 H         1 UNK         0.0784 
     96 H96       -73.9488   25.1747  -75.1041 H         1 UNK         0.3213 
     97 H97       -72.8080   23.6354  -78.1758 H         1 UNK         0.0855 
     98 H98       -74.4952   22.7355  -75.7837 H         1 UNK         0.0814 
     99 H99       -73.1606   21.8529  -76.5052 H         1 UNK         0.0814 
    100 H100      -74.6385   22.1015  -77.4229 H         1 UNK         0.0814 
    101 H101      -75.4047   24.5096  -77.4046 H         1 UNK         0.3105 
    102 H102      -75.2138   27.7650  -78.8630 H         1 UNK         0.0547 
    103 H103      -76.6880   25.2168  -79.7277 H         1 UNK         0.0837 
    104 H104      -75.6638   26.2039  -80.7597 H         1 UNK         0.0837 
    105 H105      -77.1571   26.8708  -80.1218 H         1 UNK         0.0837 
    106 H106      -77.3372   26.3306  -77.5961 H         1 UNK         0.3020 
    107 H107      -76.7461   27.5488  -74.2900 H         1 UNK         0.1245 
    108 H108      -79.2079   28.0231  -74.7446 H         1 UNK         0.0781 
    109 H109      -78.8820   28.0113  -76.4486 H         1 UNK         0.0781 
    110 H110      -79.5536   30.3450  -73.6132 H         1 UNK         0.0836 
    111 H111      -78.2478   31.5056  -73.5615 H         1 UNK         0.0836 
    112 H112      -78.5928   25.6564  -75.4071 H         1 UNK         0.3022 
    113 H113      -76.6073   22.7551  -74.8719 H         1 UNK         0.0747 
    114 H114      -78.8782   23.7016  -73.0544 H         1 UNK         0.0793 
    115 H115      -78.3159   22.0423  -73.2453 H         1 UNK         0.0793 
    116 H116      -77.2725   23.2457  -72.5066 H         1 UNK         0.0793 
    117 H117      -79.3805   23.0051  -75.3861 H         1 UNK         0.3047 
    118 H118      -79.3326   23.9495  -78.7528 H         1 UNK         0.0822 
    119 H119      -80.4148   21.7765  -79.2479 H         1 UNK         0.0807 
    120 H120      -79.8030   21.0919  -77.7409 H         1 UNK         0.0807 
    121 H121      -78.6900   21.5437  -79.0248 H         1 UNK         0.0807 
    122 H122      -81.4949   22.9331  -77.3125 H         1 UNK         0.2946 
    123 H123      -82.8424   25.8798  -76.5890 H         1 UNK         0.1144 
    124 H124      -84.3719   24.0534  -75.8951 H         1 UNK         0.0793 
    125 H125      -83.0360   22.9141  -75.8070 H         1 UNK         0.0793 
    126 H126      -83.5209   23.6084  -77.3568 H         1 UNK         0.0793 
    127 H127      -82.4722   24.5134  -74.0223 H         1 UNK         0.2896 
@<TRIPOS>BOND
     1    1    2 1    
     2    1   67 1    
     3    1   68 1    
     4    1   69 1    
     5    2    3 2    
     6    2    4 am   BACKBONE|DICT|INTERRES
     7    4    5 1    
     8    4   70 1    
     9    5    6 1    
    10    5   65 1    
    11    5   71 1    
    12    6    7 1    
    13    6   72 1    
    14    6   73 1    
    15    7    8 1    
    16    8    9 1    
    17    8   74 1    
    18    8   75 1    
    19    9   10 ar   
    20    9   14 ar   
    21   10   11 ar   
    22   10   76 1    
    23   11   12 ar   
    24   11   48 1    
    25   12   13 ar   
    26   12   77 1    
    27   13   14 ar   
    28   13   15 1    
    29   14   78 1    
    30   15   16 1    
    31   15   79 1    
    32   15   80 1    
    33   16   17 1    
    34   17   18 1    
    35   17   81 1    
    36   17   82 1    
    37   18   19 1    
    38   18   22 1    
    39   18   83 1    
    40   19   20 am   BACKBONE|DICT|INTERRES
    41   19   21 2    
    42   20   84 1    
    43   20   85 1    
    44   22   23 am   BACKBONE|DICT|INTERRES
    45   22   86 1    
    46   23   24 2    
    47   23   25 1    
    48   25   26 1    
    49   25   27 1    
    50   25   87 1    
    51   26   88 1    
    52   26   89 1    
    53   26   90 1    
    54   27   28 am   BACKBONE|DICT|INTERRES
    55   27   91 1    
    56   28   29 2    
    57   28   30 1    
    58   30   31 1    
    59   30   32 1    
    60   30   92 1    
    61   31   93 1    
    62   31   94 1    
    63   31   95 1    
    64   32   33 am   BACKBONE|DICT|INTERRES
    65   32   96 1    
    66   33   34 2    
    67   33   35 1    
    68   35   36 1    
    69   35   37 1    
    70   35   97 1    
    71   36   98 1    
    72   36   99 1    
    73   36  100 1    
    74   37   38 am   BACKBONE|DICT|INTERRES
    75   37  101 1    
    76   38   39 2    
    77   38   40 1    
    78   40   41 1    
    79   40   42 1    
    80   40  102 1    
    81   41  103 1    
    82   41  104 1    
    83   41  105 1    
    84   42   43 am   BACKBONE|DICT|INTERRES
    85   42  106 1    
    86   43   44 2    
    87   43   45 1    
    88   45   46 1    
    89   45   49 1    
    90   45  107 1    
    91   46   47 1    
    92   46  108 1    
    93   46  109 1    
    94   47   48 1    
    95   48  110 1    
    96   48  111 1    
    97   49   50 am   BACKBONE|DICT|INTERRES
    98   49  112 1    
    99   50   51 2    
   100   50   52 1    
   101   52   53 1    
   102   52   54 1    
   103   52  113 1    
   104   53  114 1    
   105   53  115 1    
   106   53  116 1    
   107   54   55 am   BACKBONE|DICT|INTERRES
   108   54  117 1    
   109   55   56 2    
   110   55   57 1    
   111   57   58 1    
   112   57   59 1    
   113   57  118 1    
   114   58  119 1    
   115   58  120 1    
   116   58  121 1    
   117   59   60 am   BACKBONE|DICT|INTERRES
   118   59  122 1    
   119   60   61 2    
   120   60   62 1    
   121   62   63 1    
   122   62   64 1    
   123   62  123 1    
   124   63  124 1    
   125   63  125 1    
   126   63  126 1    
   127   64   65 am   BACKBONE|DICT|INTERRES
   128   64  127 1    
   129   65   66 2    
@<TRIPOS>SUBSTRUCTURE
     1 UNK         1 GROUP             0       ****    0 ROOT    
