@<TRIPOS>MOLECULE
3R135
127   129    1
SMALL
USER_CHARGES


@<TRIPOS>ATOM
      1 CA        -83.5529   27.7722  -73.1603 C.3       0 UNK        -0.1998 
      2 C         -82.3124   27.2604  -72.4348 C.2       0 UNK         0.4909 
      3 O         -82.4339   26.4156  -71.5514 O.2       0 UNK        -0.5240 
      4 N         -81.1019   27.7335  -72.7603 N.am      1 UNK        -0.4739 
      5 CA        -80.7845   28.7256  -73.7972 C.3       1 UNK         0.0864 
      6 C6        -79.4992   29.5185  -73.4403 C.3       11 UNK        -0.0881 
      7 S7        -79.7930   30.8260  -72.1948 S.3       11 UNK        -0.2682 
      8 C8        -79.7332   29.9673  -70.5830 C.3       11 UNK         0.0289 
      9 C9        -78.4419   29.1921  -70.3648 C.ar      11 UNK        -0.0687 
     10 C10       -78.4733   27.7980  -70.2766 C.ar      11 UNK        -0.0823 
     11 C11       -77.2867   27.0654  -70.1705 C.ar      11 UNK        -0.0830 
     12 C12       -76.0699   27.7447  -70.0678 C.ar      11 UNK        -0.1021 
     13 C13       -76.0281   29.1409  -70.1093 C.ar      11 UNK        -0.0753 
     14 C14       -77.2175   29.8605  -70.2644 C.ar      11 UNK        -0.0933 
     15 C15       -74.6933   29.8645  -69.9982 C.3       11 UNK         0.0166 
     16 S16       -73.6191   29.5509  -71.4352 S.3       11 UNK        -0.2615 
     17 C17       -74.5421   30.4142  -72.7492 C.3       11 UNK        -0.0865 
     18 CA        -73.9055   30.2219  -74.1485 C.3       10 UNK         0.0862 
     19 C         -74.8139   30.8581  -75.2339 C.2       10 UNK         0.5551 
     20 N         -75.8399   30.1409  -75.6610 N.am      10 UNK        -0.7319 
     21 O         -74.6153   31.9931  -75.6620 O.2       10 UNK        -0.5018 
     22 N         -72.5235   30.7270  -74.1864 N.am      10 UNK        -0.4509 
     23 C         -71.5901   30.5419  -75.1324 C.2       10 UNK         0.4899 
     24 O         -70.5172   31.1429  -75.0761 O.2       10 UNK        -0.4839 
     25 CA        -71.8314   29.5418  -76.2933 C.3       9 UNK         0.0222 
     26 CB        -70.6946   29.5626  -77.3369 C.3       9 UNK        -0.1966 
     27 N         -72.0636   28.1596  -75.8553 N.am      9 UNK        -0.4218 
     28 C         -71.3176   27.4209  -75.0168 C.2       9 UNK         0.5020 
     29 O         -70.2801   27.8125  -74.4810 O.2       9 UNK        -0.5274 
     30 CA        -71.8052   25.9893  -74.7144 C.3       8 UNK         0.0270 
     31 CB        -72.6019   25.9742  -73.3985 C.3       8 UNK        -0.1976 
     32 N         -72.6191   25.3916  -75.7777 N.am      8 UNK        -0.4313 
     33 C         -72.2004   25.1315  -77.0252 C.2       8 UNK         0.5041 
     34 O         -71.0383   25.2822  -77.4039 O.2       8 UNK        -0.5577 
     35 CA        -73.2639   24.6581  -78.0348 C.3       7 UNK         0.0284 
     36 CB        -73.3428   23.1237  -78.0600 C.3       7 UNK        -0.1958 
     37 N         -74.6000   25.2130  -77.7884 N.am      7 UNK        -0.4454 
     38 C         -74.9066   26.5197  -77.7928 C.2       7 UNK         0.5089 
     39 O         -74.0973   27.4179  -78.0212 O.2       7 UNK        -0.5125 
     40 CA        -76.3445   26.8851  -77.4016 C.3       6 UNK         0.0408 
     41 CB        -77.3156   26.6810  -78.5744 C.3       6 UNK        -0.1791 
     42 N         -76.7640   26.1165  -76.2265 N.am      6 UNK        -0.4762 
     43 C         -76.3851   26.4192  -74.9749 C.2       6 UNK         0.5007 
     44 O         -75.7946   27.4587  -74.6881 O.2       6 UNK        -0.5032 
     45 CA        -76.6985   25.4116  -73.8501 C.3       5 UNK         0.0783 
     46 C46       -77.8946   25.9118  -73.0199 C.3       11 UNK        -0.0857 
     47 S47       -78.3131   24.8551  -71.5885 S.3       11 UNK        -0.2512 
     48 C48       -77.3003   25.5412  -70.2260 C.3       11 UNK         0.0225 
     49 N         -76.9013   24.0568  -74.3613 N.am      5 UNK        -0.4615 
     50 C         -75.9061   23.2533  -74.7563 C.2       4 UNK         0.5053 
     51 O         -74.7188   23.5728  -74.7124 O.2       4 UNK        -0.5105 
     52 CA        -76.3020   21.8904  -75.3517 C.3       4 UNK         0.0263 
     53 CB        -76.3926   20.8288  -74.2449 C.3       4 UNK        -0.1981 
     54 N         -77.5636   21.9284  -76.0983 N.am      4 UNK        -0.4224 
     55 C         -77.7974   22.7094  -77.1620 C.2       3 UNK         0.4895 
     56 O         -76.9470   23.4521  -77.6551 O.2       3 UNK        -0.5091 
     57 CA        -79.2204   22.7128  -77.7507 C.3       3 UNK         0.0250 
     58 CB        -80.1352   21.5915  -77.2055 C.3       3 UNK        -0.1996 
     59 N         -79.8681   24.0234  -77.5972 N.am      3 UNK        -0.4254 
     60 C         -80.0967   24.6833  -76.4509 C.2       2 UNK         0.5004 
     61 O         -79.7591   24.2729  -75.3375 O.2       2 UNK        -0.5226 
     62 CA        -80.8442   26.0185  -76.5764 C.3       2 UNK         0.0269 
     63 CB        -82.3233   25.7895  -76.9392 C.3       2 UNK        -0.1926 
     64 N         -80.7757   26.7640  -75.3187 N.am      2 UNK        -0.4687 
     65 C         -80.7099   28.0990  -75.2118 C.2       1 UNK         0.5165 
     66 O         -80.6353   28.8455  -76.1880 O.2       1 UNK        -0.5079 
     67 H67       -83.4704   27.6302  -74.2369 H         1 UNK         0.0900 
     68 H68       -84.4385   27.2328  -72.8257 H         1 UNK         0.0900 
     69 H69       -83.7121   28.8298  -72.9527 H         1 UNK         0.0900 
     70 H70       -80.3054   27.3677  -72.2619 H         1 UNK         0.2959 
     71 H71       -81.5991   29.4497  -73.8533 H         1 UNK         0.1079 
     72 H72       -79.1080   30.0341  -74.3198 H         1 UNK         0.0837 
     73 H73       -78.6941   28.8635  -73.1142 H         1 UNK         0.0837 
     74 H74       -80.6017   29.3135  -70.4963 H         1 UNK         0.0685 
     75 H75       -79.8365   30.7093  -69.7902 H         1 UNK         0.0685 
     76 H76       -79.4168   27.2742  -70.3427 H         1 UNK         0.1434 
     77 H77       -75.1456   27.1900  -69.9794 H         1 UNK         0.1329 
     78 H78       -77.1932   30.9400  -70.3225 H         1 UNK         0.1335 
     79 H79       -74.8386   30.9399  -69.8849 H         1 UNK         0.0680 
     80 H80       -74.1809   29.5279  -69.0960 H         1 UNK         0.0680 
     81 H81       -74.6134   31.4738  -72.4963 H         1 UNK         0.1032 
     82 H82       -75.5639   30.0283  -72.7496 H         1 UNK         0.1032 
     83 H83       -73.8697   29.1499  -74.3311 H         1 UNK         0.0461 
     84 H84       -75.9704   29.1938  -75.3145 H         1 UNK         0.3453 
     85 H85       -76.4620   30.5250  -76.3532 H         1 UNK         0.3453 
     86 H86       -72.2996   31.3654  -73.4388 H         1 UNK         0.2984 
     87 H87       -72.7357   29.8584  -76.8120 H         1 UNK         0.0554 
     88 H88       -70.5498   30.5658  -77.7397 H         1 UNK         0.0847 
     89 H89       -70.9190   28.9058  -78.1776 H         1 UNK         0.0847 
     90 H90       -69.7448   29.2419  -76.9073 H         1 UNK         0.0847 
     91 H91       -72.8765   27.7180  -76.2694 H         1 UNK         0.3141 
     92 H92       -70.9208   25.3618  -74.5879 H         1 UNK         0.0743 
     93 H93       -72.0028   26.3672  -72.5758 H         1 UNK         0.0784 
     94 H94       -73.5002   26.5890  -73.4632 H         1 UNK         0.0784 
     95 H95       -72.9027   24.9629  -73.1244 H         1 UNK         0.0784 
     96 H96       -73.5612   25.1116  -75.5280 H         1 UNK         0.3213 
     97 H97       -72.9495   25.0004  -79.0230 H         1 UNK         0.0855 
     98 H98       -73.6246   22.7188  -77.0882 H         1 UNK         0.0814 
     99 H99       -72.3776   22.6897  -78.3245 H         1 UNK         0.0814 
    100 H100      -74.0688   22.7730  -78.7938 H         1 UNK         0.0814 
    101 H101      -75.3510   24.5467  -77.6272 H         1 UNK         0.3105 
    102 H102      -76.3628   27.9476  -77.1577 H         1 UNK         0.0547 
    103 H103      -77.3956   25.6382  -78.8770 H         1 UNK         0.0837 
    104 H104      -76.9855   27.2435  -79.4486 H         1 UNK         0.0837 
    105 H105      -78.3119   27.0408  -78.3254 H         1 UNK         0.0837 
    106 H106      -77.2001   25.2197  -76.3992 H         1 UNK         0.3020 
    107 H107      -75.8254   25.3992  -73.1932 H         1 UNK         0.1245 
    108 H108      -78.7839   25.9745  -73.6432 H         1 UNK         0.0781 
    109 H109      -77.7003   26.9284  -72.6888 H         1 UNK         0.0781 
    110 H110      -76.2858   25.1554  -70.3351 H         1 UNK         0.0836 
    111 H111      -77.6748   25.1548  -69.2777 H         1 UNK         0.0836 
    112 H112      -77.8648   23.7575  -74.4643 H         1 UNK         0.3022 
    113 H113      -75.5159   21.5934  -76.0482 H         1 UNK         0.0747 
    114 H114      -76.5904   19.8395  -74.6577 H         1 UNK         0.0793 
    115 H115      -75.4556   20.7648  -73.6895 H         1 UNK         0.0793 
    116 H116      -77.1814   21.0590  -73.5274 H         1 UNK         0.0793 
    117 H117      -78.3239   21.3686  -75.7403 H         1 UNK         0.3047 
    118 H118      -79.1002   22.5475  -78.8225 H         1 UNK         0.0822 
    119 H119      -81.0950   21.5900  -77.7222 H         1 UNK         0.0807 
    120 H120      -80.3411   21.7020  -76.1402 H         1 UNK         0.0807 
    121 H121      -79.6921   20.6068  -77.3616 H         1 UNK         0.0807 
    122 H122      -80.1659   24.4546  -78.4613 H         1 UNK         0.2946 
    123 H123      -80.3664   26.5939  -77.3710 H         1 UNK         0.1144 
    124 H124      -82.8542   26.7350  -77.0521 H         1 UNK         0.0793 
    125 H125      -82.8385   25.2072  -76.1741 H         1 UNK         0.0793 
    126 H126      -82.4245   25.2517  -77.8826 H         1 UNK         0.0793 
    127 H127      -80.7802   26.1936  -74.4830 H         1 UNK         0.2896 
@<TRIPOS>BOND
     1    1    2 1    
     2    1   67 1    
     3    1   68 1    
     4    1   69 1    
     5    2    3 2    
     6    2    4 am   BACKBONE|DICT|INTERRES
     7    4    5 1    
     8    4   70 1    
     9    5    6 1    
    10    5   65 1    
    11    5   71 1    
    12    6    7 1    
    13    6   72 1    
    14    6   73 1    
    15    7    8 1    
    16    8    9 1    
    17    8   74 1    
    18    8   75 1    
    19    9   10 ar   
    20    9   14 ar   
    21   10   11 ar   
    22   10   76 1    
    23   11   12 ar   
    24   11   48 1    
    25   12   13 ar   
    26   12   77 1    
    27   13   14 ar   
    28   13   15 1    
    29   14   78 1    
    30   15   16 1    
    31   15   79 1    
    32   15   80 1    
    33   16   17 1    
    34   17   18 1    
    35   17   81 1    
    36   17   82 1    
    37   18   19 1    
    38   18   22 1    
    39   18   83 1    
    40   19   20 am   BACKBONE|DICT|INTERRES
    41   19   21 2    
    42   20   84 1    
    43   20   85 1    
    44   22   23 am   BACKBONE|DICT|INTERRES
    45   22   86 1    
    46   23   24 2    
    47   23   25 1    
    48   25   26 1    
    49   25   27 1    
    50   25   87 1    
    51   26   88 1    
    52   26   89 1    
    53   26   90 1    
    54   27   28 am   BACKBONE|DICT|INTERRES
    55   27   91 1    
    56   28   29 2    
    57   28   30 1    
    58   30   31 1    
    59   30   32 1    
    60   30   92 1    
    61   31   93 1    
    62   31   94 1    
    63   31   95 1    
    64   32   33 am   BACKBONE|DICT|INTERRES
    65   32   96 1    
    66   33   34 2    
    67   33   35 1    
    68   35   36 1    
    69   35   37 1    
    70   35   97 1    
    71   36   98 1    
    72   36   99 1    
    73   36  100 1    
    74   37   38 am   BACKBONE|DICT|INTERRES
    75   37  101 1    
    76   38   39 2    
    77   38   40 1    
    78   40   41 1    
    79   40   42 1    
    80   40  102 1    
    81   41  103 1    
    82   41  104 1    
    83   41  105 1    
    84   42   43 am   BACKBONE|DICT|INTERRES
    85   42  106 1    
    86   43   44 2    
    87   43   45 1    
    88   45   46 1    
    89   45   49 1    
    90   45  107 1    
    91   46   47 1    
    92   46  108 1    
    93   46  109 1    
    94   47   48 1    
    95   48  110 1    
    96   48  111 1    
    97   49   50 am   BACKBONE|DICT|INTERRES
    98   49  112 1    
    99   50   51 2    
   100   50   52 1    
   101   52   53 1    
   102   52   54 1    
   103   52  113 1    
   104   53  114 1    
   105   53  115 1    
   106   53  116 1    
   107   54   55 am   BACKBONE|DICT|INTERRES
   108   54  117 1    
   109   55   56 2    
   110   55   57 1    
   111   57   58 1    
   112   57   59 1    
   113   57  118 1    
   114   58  119 1    
   115   58  120 1    
   116   58  121 1    
   117   59   60 am   BACKBONE|DICT|INTERRES
   118   59  122 1    
   119   60   61 2    
   120   60   62 1    
   121   62   63 1    
   122   62   64 1    
   123   62  123 1    
   124   63  124 1    
   125   63  125 1    
   126   63  126 1    
   127   64   65 am   BACKBONE|DICT|INTERRES
   128   64  127 1    
   129   65   66 2    
@<TRIPOS>SUBSTRUCTURE
     1 UNK         1 GROUP             0       ****    0 ROOT    
