@<TRIPOS>MOLECULE
3R135
127   129    1
SMALL
USER_CHARGES


@<TRIPOS>ATOM
      1 CA        -80.5063   24.1689  -70.7442 C.3       0 UNK        -0.1998 
      2 C         -81.1747   24.7238  -71.9931 C.2       0 UNK         0.4909 
      3 O         -82.0269   24.0572  -72.5804 O.2       0 UNK        -0.5240 
      4 N         -80.8003   25.9437  -72.3959 N.am      1 UNK        -0.4739 
      5 CA        -81.2910   26.6206  -73.6002 C.3       1 UNK         0.0864 
      6 C6        -80.8358   28.1003  -73.6447 C.3       11 UNK        -0.0881 
      7 S7        -81.3809   29.0830  -72.2130 S.3       11 UNK        -0.2682 
      8 C8        -80.1887   30.4699  -72.2820 C.3       11 UNK         0.0289 
      9 C9        -78.7347   30.0874  -71.9953 C.ar      11 UNK        -0.0687 
     10 C10       -78.4120   29.0749  -71.0834 C.ar      11 UNK        -0.0823 
     11 C11       -77.0792   28.7579  -70.8082 C.ar      11 UNK        -0.0830 
     12 C12       -76.0593   29.4791  -71.4328 C.ar      11 UNK        -0.1021 
     13 C13       -76.3605   30.5052  -72.3315 C.ar      11 UNK        -0.0753 
     14 C14       -77.6990   30.7978  -72.6163 C.ar      11 UNK        -0.0933 
     15 C15       -75.2342   31.3341  -72.9333 C.3       11 UNK         0.0166 
     16 S16       -74.8259   30.8394  -74.6367 S.3       11 UNK        -0.2615 
     17 C17       -73.2124   31.6782  -74.8410 C.3       11 UNK        -0.0865 
     18 CA        -72.0952   30.7731  -75.4464 C.3       10 UNK         0.0862 
     19 C         -70.7213   31.5005  -75.5622 C.2       10 UNK         0.5551 
     20 N         -70.7003   32.7228  -76.0780 N.am      10 UNK        -0.7319 
     21 O         -69.6657   30.9667  -75.2248 O.2       10 UNK        -0.5018 
     22 N         -71.9981   29.4435  -74.8218 N.am      10 UNK        -0.4509 
     23 C         -71.7656   29.1633  -73.5319 C.2       10 UNK         0.4899 
     24 O         -71.6090   30.0201  -72.6606 O.2       10 UNK        -0.4839 
     25 CA        -71.7089   27.6718  -73.1426 C.3       9 UNK         0.0222 
     26 CB        -72.4571   27.4010  -71.8258 C.3       9 UNK        -0.1966 
     27 N         -72.2842   26.8244  -74.1912 N.am      9 UNK        -0.4218 
     28 C         -71.6003   25.9801  -74.9737 C.2       9 UNK         0.5020 
     29 O         -70.4019   25.7296  -74.8381 O.2       9 UNK        -0.5274 
     30 CA        -72.3763   25.3314  -76.1352 C.3       8 UNK         0.0270 
     31 CB        -73.2094   24.1379  -75.6387 C.3       8 UNK        -0.1976 
     32 N         -73.2462   26.2663  -76.8569 N.am      8 UNK        -0.4313 
     33 C         -72.8626   27.3936  -77.4718 C.2       8 UNK         0.5041 
     34 O         -71.6983   27.7897  -77.5043 O.2       8 UNK        -0.5577 
     35 CA        -73.9572   28.2673  -78.1126 C.3       7 UNK         0.0284 
     36 CB        -74.3184   27.7741  -79.5279 C.3       7 UNK        -0.1958 
     37 N         -75.1419   28.4373  -77.2593 N.am      7 UNK        -0.4454 
     38 C         -76.0502   27.5171  -76.9151 C.2       7 UNK         0.5089 
     39 O         -76.0785   26.3659  -77.3572 O.2       7 UNK        -0.5125 
     40 CA        -77.0745   27.9414  -75.8548 C.3       6 UNK         0.0408 
     41 CB        -78.4219   28.2487  -76.5227 C.3       6 UNK        -0.1791 
     42 N         -77.2266   26.9058  -74.8284 N.am      6 UNK        -0.4762 
     43 C         -76.2320   26.4862  -74.0277 C.2       6 UNK         0.5007 
     44 O         -75.1052   26.9846  -74.0333 O.2       6 UNK        -0.5032 
     45 CA        -76.4997   25.2673  -73.1265 C.3       5 UNK         0.0783 
     46 C46       -77.1286   25.6376  -71.7614 C.3       11 UNK        -0.0857 
     47 S47       -75.8860   26.2494  -70.5762 S.3       11 UNK        -0.2512 
     48 C48       -76.7431   27.6604  -69.8079 C.3       11 UNK         0.0225 
     49 N         -77.2863   24.2568  -73.8338 N.am      5 UNK        -0.4615 
     50 C         -77.1024   22.9375  -73.7120 C.2       4 UNK         0.5053 
     51 O         -76.2608   22.4280  -72.9715 O.2       4 UNK        -0.5105 
     52 CA        -78.0065   22.0213  -74.5524 C.3       4 UNK         0.0263 
     53 CB        -79.2791   21.6565  -73.7732 C.3       4 UNK        -0.1981 
     54 N         -78.3852   22.6007  -75.8410 N.am      4 UNK        -0.4224 
     55 C         -77.5602   22.8134  -76.8727 C.2       3 UNK         0.4895 
     56 O         -76.3643   22.5209  -76.8553 O.2       3 UNK        -0.5091 
     57 CA        -78.1527   23.4464  -78.1480 C.3       3 UNK         0.0250 
     58 CB        -78.5700   22.3580  -79.1562 C.3       3 UNK        -0.1996 
     59 N         -79.2385   24.4178  -77.9343 N.am      3 UNK        -0.4254 
     60 C         -80.4682   24.2229  -77.4329 C.2       2 UNK         0.5004 
     61 O         -80.8988   23.1350  -77.0456 O.2       2 UNK        -0.5226 
     62 CA        -81.3538   25.4754  -77.3001 C.3       2 UNK         0.0269 
     63 CB        -82.6833   25.2766  -78.0480 C.3       2 UNK        -0.1926 
     64 N         -81.6423   25.8790  -75.9149 N.am      2 UNK        -0.4687 
     65 C         -80.7921   25.9136  -74.8765 C.2       1 UNK         0.5165 
     66 O         -79.6274   25.5067  -74.9115 O.2       1 UNK        -0.5079 
     67 H67       -79.8554   23.3353  -71.0064 H         1 UNK         0.0900 
     68 H68       -81.2592   23.8067  -70.0447 H         1 UNK         0.0900 
     69 H69       -79.9080   24.9227  -70.2327 H         1 UNK         0.0900 
     70 H70       -80.1163   26.4578  -71.8633 H         1 UNK         0.2959 
     71 H71       -82.3826   26.5856  -73.5826 H         1 UNK         0.1079 
     72 H72       -79.7466   28.1502  -73.6950 H         1 UNK         0.0837 
     73 H73       -81.2127   28.5938  -74.5429 H         1 UNK         0.0837 
     74 H74       -80.2674   30.9408  -73.2633 H         1 UNK         0.0685 
     75 H75       -80.4934   31.2222  -71.5537 H         1 UNK         0.0685 
     76 H76       -79.1999   28.5374  -70.5752 H         1 UNK         0.1434 
     77 H77       -75.0280   29.2513  -71.2036 H         1 UNK         0.1329 
     78 H78       -77.9315   31.5983  -73.3052 H         1 UNK         0.1335 
     79 H79       -75.5069   32.3904  -72.9234 H         1 UNK         0.0680 
     80 H80       -74.3438   31.2422  -72.3089 H         1 UNK         0.0680 
     81 H81       -72.8800   32.0798  -73.8824 H         1 UNK         0.1032 
     82 H82       -73.3839   32.5470  -75.4776 H         1 UNK         0.1032 
     83 H83       -72.3807   30.5603  -76.4765 H         1 UNK         0.0461 
     84 H84       -69.8148   33.1964  -76.1682 H         1 UNK         0.3453 
     85 H85       -71.5418   33.1777  -76.3942 H         1 UNK         0.3453 
     86 H86       -72.0152   28.6681  -75.4703 H         1 UNK         0.2984 
     87 H87       -70.6560   27.4283  -72.9892 H         1 UNK         0.0554 
     88 H88       -72.3959   26.3501  -71.5432 H         1 UNK         0.0847 
     89 H89       -73.5117   27.6606  -71.9096 H         1 UNK         0.0847 
     90 H90       -72.0394   27.9821  -71.0029 H         1 UNK         0.0847 
     91 H91       -73.2874   26.9364  -74.3395 H         1 UNK         0.3141 
     92 H92       -71.6413   24.9584  -76.8512 H         1 UNK         0.0743 
     93 H93       -73.9979   24.4497  -74.9536 H         1 UNK         0.0784 
     94 H94       -73.6812   23.6103  -76.4681 H         1 UNK         0.0784 
     95 H95       -72.5843   23.4167  -75.1106 H         1 UNK         0.0784 
     96 H96       -74.2370   26.0402  -76.8980 H         1 UNK         0.3213 
     97 H97       -73.5344   29.2671  -78.2225 H         1 UNK         0.0855 
     98 H98       -73.4413   27.7895  -80.1761 H         1 UNK         0.0814 
     99 H99       -75.0733   28.4106  -79.9892 H         1 UNK         0.0814 
    100 H100      -74.6963   26.7515  -79.5267 H         1 UNK         0.0814 
    101 H101      -75.1977   29.3309  -76.7870 H         1 UNK         0.3105 
    102 H102      -76.7281   28.8473  -75.3577 H         1 UNK         0.0547 
    103 H103      -78.2979   28.9529  -77.3466 H         1 UNK         0.0837 
    104 H104      -78.8796   27.3498  -76.9314 H         1 UNK         0.0837 
    105 H105      -79.1196   28.7060  -75.8255 H         1 UNK         0.0837 
    106 H106      -78.1181   26.4169  -74.8125 H         1 UNK         0.3020 
    107 H107      -75.5141   24.8357  -72.9341 H         1 UNK         0.1245 
    108 H108      -77.5769   24.7543  -71.3048 H         1 UNK         0.0781 
    109 H109      -77.9405   26.3535  -71.8877 H         1 UNK         0.0781 
    110 H110      -76.1047   28.0757  -69.0270 H         1 UNK         0.0836 
    111 H111      -77.6414   27.2980  -69.3056 H         1 UNK         0.0836 
    112 H112      -78.0281   24.5926  -74.4415 H         1 UNK         0.3022 
    113 H113      -77.4499   21.1024  -74.7481 H         1 UNK         0.0747 
    114 H114      -79.8679   20.9091  -74.3053 H         1 UNK         0.0793 
    115 H115      -79.0370   21.2419  -72.7936 H         1 UNK         0.0793 
    116 H116      -79.9138   22.5284  -73.6148 H         1 UNK         0.0793 
    117 H117      -79.3648   22.8362  -75.9774 H         1 UNK         0.3047 
    118 H118      -77.3412   24.0186  -78.6014 H         1 UNK         0.0822 
    119 H119      -78.9076   22.7957  -80.0956 H         1 UNK         0.0807 
    120 H120      -79.3736   21.7302  -78.7699 H         1 UNK         0.0807 
    121 H121      -77.7306   21.7011  -79.3884 H         1 UNK         0.0807 
    122 H122      -78.9805   25.3657  -78.1698 H         1 UNK         0.2946 
    123 H123      -80.8393   26.3125  -77.7744 H         1 UNK         0.1144 
    124 H124      -82.5099   24.9802  -79.0836 H         1 UNK         0.0793 
    125 H125      -83.2705   26.1949  -78.0707 H         1 UNK         0.0793 
    126 H126      -83.2928   24.4992  -77.5851 H         1 UNK         0.0793 
    127 H127      -82.5762   26.2315  -75.7621 H         1 UNK         0.2896 
@<TRIPOS>BOND
     1    1    2 1    
     2    1   67 1    
     3    1   68 1    
     4    1   69 1    
     5    2    3 2    
     6    2    4 am   BACKBONE|DICT|INTERRES
     7    4    5 1    
     8    4   70 1    
     9    5    6 1    
    10    5   65 1    
    11    5   71 1    
    12    6    7 1    
    13    6   72 1    
    14    6   73 1    
    15    7    8 1    
    16    8    9 1    
    17    8   74 1    
    18    8   75 1    
    19    9   10 ar   
    20    9   14 ar   
    21   10   11 ar   
    22   10   76 1    
    23   11   12 ar   
    24   11   48 1    
    25   12   13 ar   
    26   12   77 1    
    27   13   14 ar   
    28   13   15 1    
    29   14   78 1    
    30   15   16 1    
    31   15   79 1    
    32   15   80 1    
    33   16   17 1    
    34   17   18 1    
    35   17   81 1    
    36   17   82 1    
    37   18   19 1    
    38   18   22 1    
    39   18   83 1    
    40   19   20 am   BACKBONE|DICT|INTERRES
    41   19   21 2    
    42   20   84 1    
    43   20   85 1    
    44   22   23 am   BACKBONE|DICT|INTERRES
    45   22   86 1    
    46   23   24 2    
    47   23   25 1    
    48   25   26 1    
    49   25   27 1    
    50   25   87 1    
    51   26   88 1    
    52   26   89 1    
    53   26   90 1    
    54   27   28 am   BACKBONE|DICT|INTERRES
    55   27   91 1    
    56   28   29 2    
    57   28   30 1    
    58   30   31 1    
    59   30   32 1    
    60   30   92 1    
    61   31   93 1    
    62   31   94 1    
    63   31   95 1    
    64   32   33 am   BACKBONE|DICT|INTERRES
    65   32   96 1    
    66   33   34 2    
    67   33   35 1    
    68   35   36 1    
    69   35   37 1    
    70   35   97 1    
    71   36   98 1    
    72   36   99 1    
    73   36  100 1    
    74   37   38 am   BACKBONE|DICT|INTERRES
    75   37  101 1    
    76   38   39 2    
    77   38   40 1    
    78   40   41 1    
    79   40   42 1    
    80   40  102 1    
    81   41  103 1    
    82   41  104 1    
    83   41  105 1    
    84   42   43 am   BACKBONE|DICT|INTERRES
    85   42  106 1    
    86   43   44 2    
    87   43   45 1    
    88   45   46 1    
    89   45   49 1    
    90   45  107 1    
    91   46   47 1    
    92   46  108 1    
    93   46  109 1    
    94   47   48 1    
    95   48  110 1    
    96   48  111 1    
    97   49   50 am   BACKBONE|DICT|INTERRES
    98   49  112 1    
    99   50   51 2    
   100   50   52 1    
   101   52   53 1    
   102   52   54 1    
   103   52  113 1    
   104   53  114 1    
   105   53  115 1    
   106   53  116 1    
   107   54   55 am   BACKBONE|DICT|INTERRES
   108   54  117 1    
   109   55   56 2    
   110   55   57 1    
   111   57   58 1    
   112   57   59 1    
   113   57  118 1    
   114   58  119 1    
   115   58  120 1    
   116   58  121 1    
   117   59   60 am   BACKBONE|DICT|INTERRES
   118   59  122 1    
   119   60   61 2    
   120   60   62 1    
   121   62   63 1    
   122   62   64 1    
   123   62  123 1    
   124   63  124 1    
   125   63  125 1    
   126   63  126 1    
   127   64   65 am   BACKBONE|DICT|INTERRES
   128   64  127 1    
   129   65   66 2    
@<TRIPOS>SUBSTRUCTURE
     1 UNK         1 GROUP             0       ****    0 ROOT    
