@<TRIPOS>MOLECULE
3R135
127   129    1
SMALL
USER_CHARGES


@<TRIPOS>ATOM
      1 CA        -85.3366   27.5217  -70.3629 C.3       0 UNK        -0.1998 
      2 C         -85.0755   27.8012  -71.8356 C.2       0 UNK         0.4909 
      3 O         -85.8078   28.5778  -72.4501 O.2       0 UNK        -0.5240 
      4 N         -84.0433   27.1705  -72.4049 N.am      1 UNK        -0.4739 
      5 CA        -83.6507   27.3092  -73.8105 C.3       1 UNK         0.0864 
      6 C6        -82.9560   28.6585  -74.1487 C.3       11 UNK        -0.0881 
      7 S7        -81.5686   29.1068  -73.0447 S.3       11 UNK        -0.2682 
      8 C8        -80.1416   28.8040  -74.1298 C.3       11 UNK         0.0289 
      9 C9        -78.8303   29.0379  -73.3959 C.ar      11 UNK        -0.0687 
     10 C10       -78.3983   28.1315  -72.4239 C.ar      11 UNK        -0.0823 
     11 C11       -77.1957   28.3377  -71.7400 C.ar      11 UNK        -0.0830 
     12 C12       -76.4194   29.4605  -72.0428 C.ar      11 UNK        -0.1021 
     13 C13       -76.8378   30.3707  -73.0193 C.ar      11 UNK        -0.0753 
     14 C14       -78.0447   30.1551  -73.6906 C.ar      11 UNK        -0.0933 
     15 C15       -75.9996   31.5972  -73.3452 C.3       11 UNK         0.0166 
     16 S16       -74.8709   31.2806  -74.7357 S.3       11 UNK        -0.2615 
     17 C17       -73.6000   30.2519  -73.9228 C.3       11 UNK        -0.0865 
     18 CA        -72.1752   30.4477  -74.5199 C.3       10 UNK         0.0862 
     19 C         -71.4424   31.7442  -74.0479 C.2       10 UNK         0.5551 
     20 N         -72.1578   32.8421  -73.8485 N.am      10 UNK        -0.7319 
     21 O         -70.2209   31.7824  -73.9053 O.2       10 UNK        -0.5018 
     22 N         -71.3532   29.2390  -74.3649 N.am      10 UNK        -0.4509 
     23 C         -70.9594   28.6910  -73.2092 C.2       10 UNK         0.4899 
     24 O         -71.3244   29.0888  -72.1012 O.2       10 UNK        -0.4839 
     25 CA        -69.9888   27.4971  -73.3168 C.3       9 UNK         0.0222 
     26 CB        -69.5633   26.9534  -71.9395 C.3       9 UNK        -0.1966 
     27 N         -70.5351   26.3930  -74.1098 N.am      9 UNK        -0.4218 
     28 C         -70.6275   26.3495  -75.4454 C.2       9 UNK         0.5020 
     29 O         -70.2760   27.2765  -76.1789 O.2       9 UNK        -0.5274 
     30 CA        -71.1861   25.0633  -76.0751 C.3       8 UNK         0.0270 
     31 CB        -71.4853   23.9382  -75.0623 C.3       8 UNK        -0.1976 
     32 N         -72.4077   25.3840  -76.8094 N.am      8 UNK        -0.4313 
     33 C         -72.5033   25.4920  -78.1410 C.2       8 UNK         0.5041 
     34 O         -71.5571   25.3077  -78.9093 O.2       8 UNK        -0.5577 
     35 CA        -73.8813   25.8304  -78.7437 C.3       7 UNK         0.0284 
     36 CB        -74.4455   24.6140  -79.4975 C.3       7 UNK        -0.1958 
     37 N         -74.8731   26.2731  -77.7616 N.am      7 UNK        -0.4454 
     38 C         -74.9062   27.4853  -77.1925 C.2       7 UNK         0.5089 
     39 O         -74.1166   28.3909  -77.4592 O.2       7 UNK        -0.5125 
     40 CA        -75.9914   27.7075  -76.1225 C.3       6 UNK         0.0408 
     41 CB        -77.3272   28.0685  -76.7887 C.3       6 UNK        -0.1791 
     42 N         -76.1777   26.5600  -75.2260 N.am      6 UNK        -0.4762 
     43 C         -75.2124   26.0101  -74.4711 C.2       6 UNK         0.5007 
     44 O         -74.0405   26.3887  -74.4722 O.2       6 UNK        -0.5032 
     45 CA        -75.6025   24.7799  -73.6300 C.3       5 UNK         0.0783 
     46 C46       -76.3786   25.1400  -72.3401 C.3       11 UNK        -0.0857 
     47 S47       -75.4556   26.2211  -71.1949 S.3       11 UNK        -0.2512 
     48 C48       -76.7558   27.3738  -70.6447 C.3       11 UNK         0.0225 
     49 N         -76.3577   23.8407  -74.4602 N.am      5 UNK        -0.4615 
     50 C         -75.8037   22.9971  -75.3420 C.2       4 UNK         0.5053 
     51 O         -74.5905   22.8465  -75.4707 O.2       4 UNK        -0.5105 
     52 CA        -76.7542   22.1895  -76.2451 C.3       4 UNK         0.0263 
     53 CB        -77.0393   20.8120  -75.6262 C.3       4 UNK        -0.1981 
     54 N         -78.0228   22.8702  -76.5157 N.am      4 UNK        -0.4224 
     55 C         -78.1445   24.0090  -77.2129 C.2       3 UNK         0.4895 
     56 O         -77.2012   24.5846  -77.7528 O.2       3 UNK        -0.5091 
     57 CA        -79.5459   24.6423  -77.2708 C.3       3 UNK         0.0250 
     58 CB        -80.3235   24.1182  -78.4879 C.3       3 UNK        -0.1996 
     59 N         -80.3433   24.4413  -76.0546 N.am      3 UNK        -0.4254 
     60 C         -79.9804   24.8292  -74.8245 C.2       2 UNK         0.5004 
     61 O         -78.9127   25.3930  -74.5761 O.2       2 UNK        -0.5226 
     62 CA        -80.9721   24.5361  -73.6856 C.3       2 UNK         0.0269 
     63 CB        -80.2428   24.1648  -72.3816 C.3       2 UNK        -0.1926 
     64 N         -81.8507   25.6803  -73.4358 N.am      2 UNK        -0.4687 
     65 C         -82.8345   26.0842  -74.2540 C.2       1 UNK         0.5165 
     66 O         -83.1338   25.5022  -75.2976 O.2       1 UNK        -0.5079 
     67 H67       -86.3329   27.1003  -70.2316 H         1 UNK         0.0900 
     68 H68       -85.2795   28.4473  -69.7905 H         1 UNK         0.0900 
     69 H69       -84.6138   26.8208  -69.9456 H         1 UNK         0.0900 
     70 H70       -83.5061   26.5060  -71.8658 H         1 UNK         0.2959 
     71 H71       -84.5692   27.2677  -74.4015 H         1 UNK         0.1079 
     72 H72       -83.6905   29.4619  -74.0764 H         1 UNK         0.0837 
     73 H73       -82.6255   28.6712  -75.1892 H         1 UNK         0.0837 
     74 H74       -80.1711   27.7807  -74.5015 H         1 UNK         0.0685 
     75 H75       -80.2137   29.4520  -75.0047 H         1 UNK         0.0685 
     76 H76       -79.0110   27.2715  -72.1956 H         1 UNK         0.1434 
     77 H77       -75.4910   29.6254  -71.5137 H         1 UNK         0.1329 
     78 H78       -78.3700   30.8588  -74.4444 H         1 UNK         0.1335 
     79 H79       -75.4355   31.9238  -72.4702 H         1 UNK         0.0680 
     80 H80       -76.6542   32.4293  -73.6094 H         1 UNK         0.0680 
     81 H81       -73.9138   29.2127  -74.0364 H         1 UNK         0.1032 
     82 H82       -73.5874   30.4372  -72.8477 H         1 UNK         0.1032 
     83 H83       -72.2779   30.5556  -75.6003 H         1 UNK         0.0461 
     84 H84       -73.1555   32.8272  -74.0017 H         1 UNK         0.3453 
     85 H85       -71.6979   33.6919  -73.5622 H         1 UNK         0.3453 
     86 H86       -70.9983   28.8228  -75.2209 H         1 UNK         0.2984 
     87 H87       -69.0891   27.8645  -73.8151 H         1 UNK         0.0554 
     88 H88       -68.8297   26.1528  -72.0364 H         1 UNK         0.0847 
     89 H89       -70.4138   26.5648  -71.3777 H         1 UNK         0.0847 
     90 H90       -69.1042   27.7368  -71.3348 H         1 UNK         0.0847 
     91 H91       -70.8977   25.6074  -73.5897 H         1 UNK         0.3141 
     92 H92       -70.4180   24.6924  -76.7566 H         1 UNK         0.0743 
     93 H93       -72.2623   24.2182  -74.3501 H         1 UNK         0.0784 
     94 H94       -71.8274   23.0396  -75.5762 H         1 UNK         0.0784 
     95 H95       -70.5931   23.6575  -74.5009 H         1 UNK         0.0784 
     96 H96       -73.2099   25.6326  -76.2409 H         1 UNK         0.3213 
     97 H97       -73.7289   26.6373  -79.4636 H         1 UNK         0.0855 
     98 H98       -74.6239   23.7735  -78.8251 H         1 UNK         0.0814 
     99 H99       -73.7547   24.2743  -80.2704 H         1 UNK         0.0814 
    100 H100      -75.3882   24.8541  -79.9896 H         1 UNK         0.0814 
    101 H101      -75.6154   25.6138  -77.5365 H         1 UNK         0.3105 
    102 H102      -75.6869   28.5485  -75.4998 H         1 UNK         0.0547 
    103 H103      -77.2428   29.0078  -77.3364 H         1 UNK         0.0837 
    104 H104      -77.6439   27.3059  -77.4995 H         1 UNK         0.0837 
    105 H105      -78.1204   28.1912  -76.0542 H         1 UNK         0.0837 
    106 H106      -77.1188   26.1872  -75.1459 H         1 UNK         0.3020 
    107 H107      -74.6727   24.2942  -73.3242 H         1 UNK         0.1245 
    108 H108      -76.6308   24.2277  -71.7975 H         1 UNK         0.0781 
    109 H109      -77.3293   25.6042  -72.5915 H         1 UNK         0.0781 
    110 H110      -76.3777   27.9452  -69.7957 H         1 UNK         0.0836 
    111 H111      -77.6065   26.8040  -70.2671 H         1 UNK         0.0836 
    112 H112      -77.3623   23.9640  -74.4630 H         1 UNK         0.3022 
    113 H113      -76.2462   22.0385  -77.2002 H         1 UNK         0.0747 
    114 H114      -77.6428   20.1944  -76.2918 H         1 UNK         0.0793 
    115 H115      -76.1113   20.2701  -75.4379 H         1 UNK         0.0793 
    116 H116      -77.5658   20.8967  -74.6747 H         1 UNK         0.0793 
    117 H117      -78.8551   22.4654  -76.1126 H         1 UNK         0.3047 
    118 H118      -79.4116   25.7184  -77.3920 H         1 UNK         0.0822 
    119 H119      -81.2782   24.6326  -78.6003 H         1 UNK         0.0807 
    120 H120      -80.5243   23.0489  -78.4108 H         1 UNK         0.0807 
    121 H121      -79.7609   24.2791  -79.4089 H         1 UNK         0.0807 
    122 H122      -81.2643   24.0432  -76.1789 H         1 UNK         0.2946 
    123 H123      -81.5863   23.6806  -73.9767 H         1 UNK         0.1144 
    124 H124      -79.5544   23.3337  -72.5410 H         1 UNK         0.0793 
    125 H125      -80.9476   23.8553  -71.6097 H         1 UNK         0.0793 
    126 H126      -79.6610   24.9968  -71.9858 H         1 UNK         0.0793 
    127 H127      -81.6239   26.2561  -72.6381 H         1 UNK         0.2896 
@<TRIPOS>BOND
     1    1    2 1    
     2    1   67 1    
     3    1   68 1    
     4    1   69 1    
     5    2    3 2    
     6    2    4 am   BACKBONE|DICT|INTERRES
     7    4    5 1    
     8    4   70 1    
     9    5    6 1    
    10    5   65 1    
    11    5   71 1    
    12    6    7 1    
    13    6   72 1    
    14    6   73 1    
    15    7    8 1    
    16    8    9 1    
    17    8   74 1    
    18    8   75 1    
    19    9   10 ar   
    20    9   14 ar   
    21   10   11 ar   
    22   10   76 1    
    23   11   12 ar   
    24   11   48 1    
    25   12   13 ar   
    26   12   77 1    
    27   13   14 ar   
    28   13   15 1    
    29   14   78 1    
    30   15   16 1    
    31   15   79 1    
    32   15   80 1    
    33   16   17 1    
    34   17   18 1    
    35   17   81 1    
    36   17   82 1    
    37   18   19 1    
    38   18   22 1    
    39   18   83 1    
    40   19   20 am   BACKBONE|DICT|INTERRES
    41   19   21 2    
    42   20   84 1    
    43   20   85 1    
    44   22   23 am   BACKBONE|DICT|INTERRES
    45   22   86 1    
    46   23   24 2    
    47   23   25 1    
    48   25   26 1    
    49   25   27 1    
    50   25   87 1    
    51   26   88 1    
    52   26   89 1    
    53   26   90 1    
    54   27   28 am   BACKBONE|DICT|INTERRES
    55   27   91 1    
    56   28   29 2    
    57   28   30 1    
    58   30   31 1    
    59   30   32 1    
    60   30   92 1    
    61   31   93 1    
    62   31   94 1    
    63   31   95 1    
    64   32   33 am   BACKBONE|DICT|INTERRES
    65   32   96 1    
    66   33   34 2    
    67   33   35 1    
    68   35   36 1    
    69   35   37 1    
    70   35   97 1    
    71   36   98 1    
    72   36   99 1    
    73   36  100 1    
    74   37   38 am   BACKBONE|DICT|INTERRES
    75   37  101 1    
    76   38   39 2    
    77   38   40 1    
    78   40   41 1    
    79   40   42 1    
    80   40  102 1    
    81   41  103 1    
    82   41  104 1    
    83   41  105 1    
    84   42   43 am   BACKBONE|DICT|INTERRES
    85   42  106 1    
    86   43   44 2    
    87   43   45 1    
    88   45   46 1    
    89   45   49 1    
    90   45  107 1    
    91   46   47 1    
    92   46  108 1    
    93   46  109 1    
    94   47   48 1    
    95   48  110 1    
    96   48  111 1    
    97   49   50 am   BACKBONE|DICT|INTERRES
    98   49  112 1    
    99   50   51 2    
   100   50   52 1    
   101   52   53 1    
   102   52   54 1    
   103   52  113 1    
   104   53  114 1    
   105   53  115 1    
   106   53  116 1    
   107   54   55 am   BACKBONE|DICT|INTERRES
   108   54  117 1    
   109   55   56 2    
   110   55   57 1    
   111   57   58 1    
   112   57   59 1    
   113   57  118 1    
   114   58  119 1    
   115   58  120 1    
   116   58  121 1    
   117   59   60 am   BACKBONE|DICT|INTERRES
   118   59  122 1    
   119   60   61 2    
   120   60   62 1    
   121   62   63 1    
   122   62   64 1    
   123   62  123 1    
   124   63  124 1    
   125   63  125 1    
   126   63  126 1    
   127   64   65 am   BACKBONE|DICT|INTERRES
   128   64  127 1    
   129   65   66 2    
@<TRIPOS>SUBSTRUCTURE
     1 UNK         1 GROUP             0       ****    0 ROOT    
