@<TRIPOS>MOLECULE
3R135
127   129    1
SMALL
USER_CHARGES


@<TRIPOS>ATOM
      1 CA        -78.8089   30.8363  -75.9847 C.3       0 UNK        -0.1998 
      2 C         -79.0653   29.7065  -74.9995 C.2       0 UNK         0.4909 
      3 O         -78.1848   28.8778  -74.7825 O.2       0 UNK        -0.5240 
      4 N         -80.2568   29.6707  -74.3923 N.am      1 UNK        -0.4739 
      5 CA        -80.6616   28.6253  -73.4473 C.3       1 UNK         0.0864 
      6 C6        -81.8097   29.0902  -72.5185 C.3       11 UNK        -0.0881 
      7 S7        -81.3631   30.5626  -71.5370 S.3       11 UNK        -0.2682 
      8 C8        -80.8713   29.8206  -69.9489 C.3       11 UNK         0.0289 
      9 C9        -79.5418   29.0854  -70.0476 C.ar      11 UNK        -0.0687 
     10 C10       -79.5059   27.6889  -70.1148 C.ar      11 UNK        -0.0823 
     11 C11       -78.2860   27.0074  -70.1828 C.ar      11 UNK        -0.0830 
     12 C12       -77.0959   27.7437  -70.1311 C.ar      11 UNK        -0.1021 
     13 C13       -77.1155   29.1418  -70.1179 C.ar      11 UNK        -0.0753 
     14 C14       -78.3441   29.8059  -70.0655 C.ar      11 UNK        -0.0933 
     15 C15       -75.8154   29.9402  -70.1601 C.3       11 UNK         0.0166 
     16 S16       -74.6738   29.3860  -71.4737 S.3       11 UNK        -0.2615 
     17 C17       -75.6595   29.6696  -72.9898 C.3       11 UNK        -0.0865 
     18 CA        -74.8833   30.3715  -74.1327 C.3       10 UNK         0.0862 
     19 C         -74.7416   31.9004  -73.8766 C.2       10 UNK         0.5551 
     20 N         -73.5405   32.4383  -73.7014 N.am      10 UNK        -0.7319 
     21 O         -75.7427   32.6118  -73.8489 O.2       10 UNK        -0.5018 
     22 N         -73.6342   29.6577  -74.4453 N.am      10 UNK        -0.4509 
     23 C         -72.9190   29.7939  -75.5679 C.2       10 UNK         0.4899 
     24 O         -73.2578   30.4909  -76.5239 O.2       10 UNK        -0.4839 
     25 CA        -71.5840   29.0422  -75.6116 C.3       9 UNK         0.0222 
     26 CB        -70.6505   29.5113  -74.4726 C.3       9 UNK        -0.1966 
     27 N         -71.8014   27.5939  -75.5737 N.am      9 UNK        -0.4218 
     28 C         -70.8589   26.6727  -75.8221 C.2       9 UNK         0.5020 
     29 O         -69.6845   26.9423  -76.0806 O.2       9 UNK        -0.5274 
     30 CA        -71.2908   25.1965  -75.7965 C.3       8 UNK         0.0270 
     31 CB        -71.5883   24.7215  -74.3640 C.3       8 UNK        -0.1976 
     32 N         -72.4373   24.9351  -76.6681 N.am      8 UNK        -0.4313 
     33 C         -72.3950   24.9749  -78.0083 C.2       8 UNK         0.5041 
     34 O         -71.3658   25.1679  -78.6573 O.2       8 UNK        -0.5577 
     35 CA        -73.7218   24.7711  -78.7605 C.3       7 UNK         0.0284 
     36 CB        -74.0003   23.2752  -78.9776 C.3       7 UNK        -0.1958 
     37 N         -74.8593   25.3957  -78.0826 N.am      7 UNK        -0.4454 
     38 C         -75.0176   26.7195  -77.9337 C.2       7 UNK         0.5089 
     39 O         -74.2721   27.5606  -78.4355 O.2       7 UNK        -0.5125 
     40 CA        -76.1879   27.1824  -77.0509 C.3       6 UNK         0.0408 
     41 CB        -77.4887   27.2445  -77.8668 C.3       6 UNK        -0.1791 
     42 N         -76.3869   26.3271  -75.8797 N.am      6 UNK        -0.4762 
     43 C         -75.4987   26.1477  -74.8933 C.2       6 UNK         0.5007 
     44 O         -74.4007   26.7023  -74.8521 O.2       6 UNK        -0.5032 
     45 CA        -75.8674   25.1291  -73.7986 C.3       5 UNK         0.0783 
     46 C46       -76.8205   25.7444  -72.7489 C.3       11 UNK        -0.0857 
     47 S47       -76.8831   24.7511  -71.2200 S.3       11 UNK        -0.2512 
     48 C48       -78.2918   25.4816  -70.3044 C.3       11 UNK         0.0225 
     49 N         -76.4047   23.8991  -74.3821 N.am      5 UNK        -0.4615 
     50 C         -75.6944   23.0315  -75.1132 C.2       4 UNK         0.5053 
     51 O         -74.4915   23.1549  -75.3421 O.2       4 UNK        -0.5105 
     52 CA        -76.4647   21.8443  -75.7152 C.3       4 UNK         0.0263 
     53 CB        -76.5786   20.7017  -74.6938 C.3       4 UNK        -0.1981 
     54 N         -77.8018   22.2175  -76.1867 N.am      4 UNK        -0.4224 
     55 C         -78.0331   23.0285  -77.2292 C.2       3 UNK         0.4895 
     56 O         -77.1450   23.5155  -77.9287 O.2       3 UNK        -0.5091 
     57 CA        -79.5018   23.3980  -77.5089 C.3       3 UNK         0.0250 
     58 CB        -80.1957   22.2881  -78.3147 C.3       3 UNK        -0.1996 
     59 N         -80.2885   23.7030  -76.3048 N.am      3 UNK        -0.4254 
     60 C         -79.9699   24.6501  -75.4113 C.2       2 UNK         0.5004 
     61 O         -78.9342   25.3117  -75.4677 O.2       2 UNK        -0.5226 
     62 CA        -80.9331   24.8604  -74.2304 C.3       2 UNK         0.0269 
     63 CB        -80.7017   23.7802  -73.1602 C.3       2 UNK        -0.1926 
     64 N         -80.7471   26.1799  -73.6154 N.am      2 UNK        -0.4687 
     65 C         -81.0627   27.3428  -74.2025 C.2       1 UNK         0.5165 
     66 O         -81.6778   27.4257  -75.2697 O.2       1 UNK        -0.5079 
     67 H67       -79.6826   31.4757  -76.1085 H         1 UNK         0.0900 
     68 H68       -78.5437   30.4287  -76.9598 H         1 UNK         0.0900 
     69 H69       -77.9810   31.4537  -75.6363 H         1 UNK         0.0900 
     70 H70       -80.9585   30.3628  -74.6106 H         1 UNK         0.2959 
     71 H71       -79.7940   28.3895  -72.8273 H         1 UNK         0.1079 
     72 H72       -82.6980   29.3341  -73.1046 H         1 UNK         0.0837 
     73 H73       -82.1101   28.2884  -71.8412 H         1 UNK         0.0837 
     74 H74       -80.7871   30.6140  -69.2048 H         1 UNK         0.0685 
     75 H75       -81.6603   29.1564  -69.5927 H         1 UNK         0.0685 
     76 H76       -80.4331   27.1320  -70.1160 H         1 UNK         0.1434 
     77 H77       -76.1437   27.2325  -70.1502 H         1 UNK         0.1329 
     78 H78       -78.3732   30.8867  -70.0373 H         1 UNK         0.1335 
     79 H79       -75.3144   29.8448  -69.1961 H         1 UNK         0.0680 
     80 H80       -76.0164   31.0034  -70.3016 H         1 UNK         0.0680 
     81 H81       -76.5750   30.2147  -72.7513 H         1 UNK         0.1032 
     82 H82       -75.9968   28.7009  -73.3515 H         1 UNK         0.1032 
     83 H83       -75.5095   30.2914  -75.0238 H         1 UNK         0.0461 
     84 H84       -73.4604   33.4300  -73.5415 H         1 UNK         0.3453 
     85 H85       -72.7178   31.8587  -73.7148 H         1 UNK         0.3453 
     86 H86       -73.2871   29.0588  -73.7102 H         1 UNK         0.2984 
     87 H87       -71.1094   29.2842  -76.5649 H         1 UNK         0.0554 
     88 H88       -69.6353   29.1383  -74.6051 H         1 UNK         0.0847 
     89 H89       -70.9988   29.1779  -73.4946 H         1 UNK         0.0847 
     90 H90       -70.5824   30.5995  -74.4443 H         1 UNK         0.0847 
     91 H91       -72.7567   27.2853  -75.3853 H         1 UNK         0.3141 
     92 H92       -70.4532   24.6029  -76.1694 H         1 UNK         0.0743 
     93 H93       -72.4221   25.2603  -73.9155 H         1 UNK         0.0784 
     94 H94       -71.8292   23.6585  -74.3424 H         1 UNK         0.0784 
     95 H95       -70.7217   24.8705  -73.7185 H         1 UNK         0.0784 
     96 H96       -73.3155   24.7068  -76.2153 H         1 UNK         0.3213 
     97 H97       -73.6201   25.2418  -79.7408 H         1 UNK         0.0855 
     98 H98       -74.1377   22.7477  -78.0335 H         1 UNK         0.0814 
     99 H99       -73.1722   22.7964  -79.5017 H         1 UNK         0.0814 
    100 H100      -74.8963   23.1222  -79.5794 H         1 UNK         0.0814 
    101 H101      -75.5710   24.7753  -77.7081 H         1 UNK         0.3105 
    102 H102      -75.9608   28.1872  -76.6880 H         1 UNK         0.0547 
    103 H103      -77.3858   27.9221  -78.7150 H         1 UNK         0.0837 
    104 H104      -77.7651   26.2654  -78.2591 H         1 UNK         0.0837 
    105 H105      -78.3198   27.6043  -77.2603 H         1 UNK         0.0837 
    106 H106      -77.2984   25.8750  -75.7957 H         1 UNK         0.3020 
    107 H107      -74.9325   24.8726  -73.2943 H         1 UNK         0.1245 
    108 H108      -77.8261   25.8748  -73.1495 H         1 UNK         0.0781 
    109 H109      -76.4711   26.7370  -72.4760 H         1 UNK         0.0781 
    110 H110      -78.3070   25.0559  -69.3004 H         1 UNK         0.0836 
    111 H111      -79.2121   25.1520  -70.7874 H         1 UNK         0.0836 
    112 H112      -77.3990   23.7592  -74.2889 H         1 UNK         0.3022 
    113 H113      -75.8939   21.4802  -76.5722 H         1 UNK         0.0747 
    114 H114      -77.0533   19.8235  -75.1319 H         1 UNK         0.0793 
    115 H115      -75.5922   20.3937  -74.3435 H         1 UNK         0.0793 
    116 H116      -77.1579   20.9959  -73.8175 H         1 UNK         0.0793 
    117 H117      -78.5914   21.8616  -75.6682 H         1 UNK         0.3047 
    118 H118      -79.4916   24.3023  -78.1211 H         1 UNK         0.0822 
    119 H119      -81.1967   22.5888  -78.6246 H         1 UNK         0.0807 
    120 H120      -80.2843   21.3645  -77.7414 H         1 UNK         0.0807 
    121 H121      -79.6352   22.0561  -79.2217 H         1 UNK         0.0807 
    122 H122      -81.1469   23.1847  -76.1829 H         1 UNK         0.2946 
    123 H123      -81.9589   24.7917  -74.5997 H         1 UNK         0.1144 
    124 H124      -81.3597   23.9221  -72.3026 H         1 UNK         0.0793 
    125 H125      -79.6726   23.7816  -72.7987 H         1 UNK         0.0793 
    126 H126      -80.9041   22.7844  -73.5565 H         1 UNK         0.0793 
    127 H127      -80.2285   26.1996  -72.7513 H         1 UNK         0.2896 
@<TRIPOS>BOND
     1    1    2 1    
     2    1   67 1    
     3    1   68 1    
     4    1   69 1    
     5    2    3 2    
     6    2    4 am   BACKBONE|DICT|INTERRES
     7    4    5 1    
     8    4   70 1    
     9    5    6 1    
    10    5   65 1    
    11    5   71 1    
    12    6    7 1    
    13    6   72 1    
    14    6   73 1    
    15    7    8 1    
    16    8    9 1    
    17    8   74 1    
    18    8   75 1    
    19    9   10 ar   
    20    9   14 ar   
    21   10   11 ar   
    22   10   76 1    
    23   11   12 ar   
    24   11   48 1    
    25   12   13 ar   
    26   12   77 1    
    27   13   14 ar   
    28   13   15 1    
    29   14   78 1    
    30   15   16 1    
    31   15   79 1    
    32   15   80 1    
    33   16   17 1    
    34   17   18 1    
    35   17   81 1    
    36   17   82 1    
    37   18   19 1    
    38   18   22 1    
    39   18   83 1    
    40   19   20 am   BACKBONE|DICT|INTERRES
    41   19   21 2    
    42   20   84 1    
    43   20   85 1    
    44   22   23 am   BACKBONE|DICT|INTERRES
    45   22   86 1    
    46   23   24 2    
    47   23   25 1    
    48   25   26 1    
    49   25   27 1    
    50   25   87 1    
    51   26   88 1    
    52   26   89 1    
    53   26   90 1    
    54   27   28 am   BACKBONE|DICT|INTERRES
    55   27   91 1    
    56   28   29 2    
    57   28   30 1    
    58   30   31 1    
    59   30   32 1    
    60   30   92 1    
    61   31   93 1    
    62   31   94 1    
    63   31   95 1    
    64   32   33 am   BACKBONE|DICT|INTERRES
    65   32   96 1    
    66   33   34 2    
    67   33   35 1    
    68   35   36 1    
    69   35   37 1    
    70   35   97 1    
    71   36   98 1    
    72   36   99 1    
    73   36  100 1    
    74   37   38 am   BACKBONE|DICT|INTERRES
    75   37  101 1    
    76   38   39 2    
    77   38   40 1    
    78   40   41 1    
    79   40   42 1    
    80   40  102 1    
    81   41  103 1    
    82   41  104 1    
    83   41  105 1    
    84   42   43 am   BACKBONE|DICT|INTERRES
    85   42  106 1    
    86   43   44 2    
    87   43   45 1    
    88   45   46 1    
    89   45   49 1    
    90   45  107 1    
    91   46   47 1    
    92   46  108 1    
    93   46  109 1    
    94   47   48 1    
    95   48  110 1    
    96   48  111 1    
    97   49   50 am   BACKBONE|DICT|INTERRES
    98   49  112 1    
    99   50   51 2    
   100   50   52 1    
   101   52   53 1    
   102   52   54 1    
   103   52  113 1    
   104   53  114 1    
   105   53  115 1    
   106   53  116 1    
   107   54   55 am   BACKBONE|DICT|INTERRES
   108   54  117 1    
   109   55   56 2    
   110   55   57 1    
   111   57   58 1    
   112   57   59 1    
   113   57  118 1    
   114   58  119 1    
   115   58  120 1    
   116   58  121 1    
   117   59   60 am   BACKBONE|DICT|INTERRES
   118   59  122 1    
   119   60   61 2    
   120   60   62 1    
   121   62   63 1    
   122   62   64 1    
   123   62  123 1    
   124   63  124 1    
   125   63  125 1    
   126   63  126 1    
   127   64   65 am   BACKBONE|DICT|INTERRES
   128   64  127 1    
   129   65   66 2    
@<TRIPOS>SUBSTRUCTURE
     1 UNK         1 GROUP             0       ****    0 ROOT    
