@<TRIPOS>MOLECULE
3R135
127   129    1
SMALL
USER_CHARGES


@<TRIPOS>ATOM
      1 CA        -85.6948   29.9863  -75.4444 C.3       0 UNK        -0.1998 
      2 C         -84.2481   29.5493  -75.6196 C.2       0 UNK         0.4909 
      3 O         -83.6033   29.9466  -76.5903 O.2       0 UNK        -0.5240 
      4 N         -83.7335   28.7401  -74.6834 N.am      1 UNK        -0.4739 
      5 CA        -82.3745   28.1858  -74.7047 C.3       1 UNK         0.0864 
      6 C6        -82.0132   27.5703  -73.3279 C.3       11 UNK        -0.0881 
      7 S7        -80.2528   27.1205  -73.1747 S.3       11 UNK        -0.2682 
      8 C8        -79.6580   28.3826  -72.0114 C.3       11 UNK         0.0289 
      9 C9        -78.1566   28.2572  -71.8196 C.ar      11 UNK        -0.0687 
     10 C10       -77.6381   27.3054  -70.9380 C.ar      11 UNK        -0.0823 
     11 C11       -76.2559   27.1536  -70.7895 C.ar      11 UNK        -0.0830 
     12 C12       -75.3915   27.9768  -71.5179 C.ar      11 UNK        -0.1021 
     13 C13       -75.9010   28.9356  -72.3992 C.ar      11 UNK        -0.0753 
     14 C14       -77.2842   29.0735  -72.5431 C.ar      11 UNK        -0.0933 
     15 C15       -74.9669   29.7895  -73.2399 C.3       11 UNK         0.0166 
     16 S16       -74.4247   31.2839  -72.3521 S.3       11 UNK        -0.2615 
     17 C17       -72.8099   30.7562  -71.6789 C.3       11 UNK        -0.0865 
     18 CA        -71.6263   31.1685  -72.5961 C.3       10 UNK         0.0862 
     19 C         -70.2539   30.8686  -71.9232 C.2       10 UNK         0.5551 
     20 N         -69.3716   30.0701  -72.5144 N.am      10 UNK        -0.7319 
     21 O         -69.9810   31.3804  -70.8402 O.2       10 UNK        -0.5018 
     22 N         -71.7728   30.5906  -73.9389 N.am      10 UNK        -0.4509 
     23 C         -71.2669   31.0906  -75.0706 C.2       10 UNK         0.4899 
     24 O         -70.6562   32.1584  -75.1381 O.2       10 UNK        -0.4839 
     25 CA        -71.4876   30.2371  -76.3380 C.3       9 UNK         0.0222 
     26 CB        -70.4417   30.5243  -77.4358 C.3       9 UNK        -0.1966 
     27 N         -71.5710   28.7925  -76.0673 N.am      9 UNK        -0.4218 
     28 C         -70.6325   28.0231  -75.4867 C.2       9 UNK         0.5020 
     29 O         -69.5594   28.4594  -75.0667 O.2       9 UNK        -0.5274 
     30 CA        -70.9447   26.5268  -75.2897 C.3       8 UNK         0.0270 
     31 CB        -71.1117   26.2134  -73.7927 C.3       8 UNK        -0.1976 
     32 N         -72.1343   26.0716  -76.0164 N.am      8 UNK        -0.4313 
     33 C         -72.1901   25.9032  -77.3477 C.2       8 UNK         0.5041 
     34 O         -71.2157   26.0478  -78.0870 O.2       8 UNK        -0.5577 
     35 CA        -73.5475   25.5360  -77.9793 C.3       7 UNK         0.0284 
     36 CB        -73.5339   24.0816  -78.4770 C.3       7 UNK        -0.1958 
     37 N         -74.6955   25.7372  -77.0900 N.am      7 UNK        -0.4454 
     38 C         -75.1383   26.9327  -76.6689 C.2       7 UNK         0.5089 
     39 O         -74.6271   28.0022  -77.0048 O.2       7 UNK        -0.5125 
     40 CA        -76.3025   26.9410  -75.6582 C.3       6 UNK         0.0408 
     41 CB        -77.6396   27.1635  -76.3786 C.3       6 UNK        -0.1791 
     42 N         -76.3890   25.7346  -74.8271 N.am      6 UNK        -0.4762 
     43 C         -75.4092   25.2877  -74.0224 C.2       6 UNK         0.5007 
     44 O         -74.3243   25.8592  -73.9076 O.2       6 UNK        -0.5032 
     45 CA        -75.6267   23.9327  -73.3064 C.3       5 UNK         0.0783 
     46 C46       -76.1248   24.0997  -71.8487 C.3       11 UNK        -0.0857 
     47 S47       -74.8352   24.7480  -70.7282 S.3       11 UNK        -0.2512 
     48 C48       -75.7018   26.0914  -69.8491 C.3       11 UNK         0.0225 
     49 N         -76.5010   23.0235  -74.0565 N.am      5 UNK        -0.4615 
     50 C         -76.2798   22.5816  -75.3028 C.2       4 UNK         0.5053 
     51 O         -75.2705   22.8544  -75.9511 O.2       4 UNK        -0.5105 
     52 CA        -77.3788   21.7244  -75.9576 C.3       4 UNK         0.0263 
     53 CB        -76.9972   20.2365  -75.9026 C.3       4 UNK        -0.1981 
     54 N         -78.7217   21.9007  -75.3886 N.am      4 UNK        -0.4224 
     55 C         -79.4115   23.0501  -75.3649 C.2       3 UNK         0.4895 
     56 O         -78.9617   24.1302  -75.7535 O.2       3 UNK        -0.5091 
     57 CA        -80.8144   22.9788  -74.7396 C.3       3 UNK         0.0250 
     58 CB        -80.7282   23.1688  -73.2158 C.3       3 UNK        -0.1996 
     59 N         -81.7194   23.9863  -75.2951 N.am      3 UNK        -0.4254 
     60 C         -82.2079   23.9816  -76.5443 C.2       2 UNK         0.5004 
     61 O         -81.9826   23.0848  -77.3588 O.2       2 UNK        -0.5226 
     62 CA        -83.1303   25.1482  -76.9558 C.3       2 UNK         0.0269 
     63 CB        -84.5692   24.6499  -77.1749 C.3       2 UNK        -0.1926 
     64 N         -83.1575   26.2473  -75.9849 N.am      2 UNK        -0.4687 
     65 C         -82.1942   27.1709  -75.8551 C.2       1 UNK         0.5165 
     66 O         -81.2122   27.2419  -76.5941 O.2       1 UNK        -0.5079 
     67 H67       -86.2892   29.6659  -76.2997 H         1 UNK         0.0900 
     68 H68       -86.1426   29.5659  -74.5441 H         1 UNK         0.0900 
     69 H69       -85.7530   31.0722  -75.3764 H         1 UNK         0.0900 
     70 H70       -84.3133   28.4605  -73.9047 H         1 UNK         0.2959 
     71 H71       -81.6877   29.0141  -74.8957 H         1 UNK         0.1079 
     72 H72       -82.2624   28.2754  -72.5331 H         1 UNK         0.0837 
     73 H73       -82.6139   26.6813  -73.1270 H         1 UNK         0.0837 
     74 H74       -79.9134   29.3747  -72.3872 H         1 UNK         0.0685 
     75 H75       -80.1681   28.2681  -71.0537 H         1 UNK         0.0685 
     76 H76       -78.3152   26.6674  -70.3863 H         1 UNK         0.1434 
     77 H77       -74.3230   27.8464  -71.4192 H         1 UNK         0.1329 
     78 H78       -77.6822   29.8030  -73.2352 H         1 UNK         0.1335 
     79 H79       -74.1135   29.1922  -73.5613 H         1 UNK         0.0680 
     80 H80       -75.4714   30.1001  -74.1563 H         1 UNK         0.0680 
     81 H81       -72.7045   31.2182  -70.6953 H         1 UNK         0.1032 
     82 H82       -72.8091   29.6798  -71.5027 H         1 UNK         0.1032 
     83 H83       -71.6652   32.2545  -72.7022 H         1 UNK         0.0461 
     84 H84       -69.5632   29.6454  -73.4150 H         1 UNK         0.3453 
     85 H85       -68.4892   29.8960  -72.0607 H         1 UNK         0.3453 
     86 H86       -72.2371   29.6981  -73.9864 H         1 UNK         0.2984 
     87 H87       -72.4642   30.5262  -76.7290 H         1 UNK         0.0554 
     88 H88       -70.4718   31.5703  -77.7432 H         1 UNK         0.0847 
     89 H89       -70.6248   29.9218  -78.3255 H         1 UNK         0.0847 
     90 H90       -69.4278   30.3158  -77.0926 H         1 UNK         0.0847 
     91 H91       -72.4321   28.3461  -76.3612 H         1 UNK         0.3141 
     92 H92       -70.0846   25.9648  -75.6596 H         1 UNK         0.0743 
     93 H93       -70.1974   26.4398  -73.2422 H         1 UNK         0.0784 
     94 H94       -71.9127   26.8010  -73.3426 H         1 UNK         0.0784 
     95 H95       -71.3359   25.1595  -73.6274 H         1 UNK         0.0784 
     96 H96       -72.9751   25.9329  -75.4630 H         1 UNK         0.3213 
     97 H97       -73.6844   26.1881  -78.8447 H         1 UNK         0.0855 
     98 H98       -73.3318   23.3803  -77.6669 H         1 UNK         0.0814 
     99 H99       -72.7584   23.9359  -79.2302 H         1 UNK         0.0814 
    100 H100      -74.4844   23.8049  -78.9336 H         1 UNK         0.0814 
    101 H101      -75.1333   24.9001  -76.7215 H         1 UNK         0.3105 
    102 H102      -76.1388   27.7835  -74.9871 H         1 UNK         0.0547 
    103 H103      -78.4623   27.2551  -75.6693 H         1 UNK         0.0837 
    104 H104      -77.6198   28.0799  -76.9695 H         1 UNK         0.0837 
    105 H105      -77.8758   26.3420  -77.0560 H         1 UNK         0.0837 
    106 H106      -77.2391   25.1880  -74.9152 H         1 UNK         0.3020 
    107 H107      -74.6480   23.4483  -73.2728 H         1 UNK         0.1245 
    108 H108      -76.4221   23.1302  -71.4458 H         1 UNK         0.0781 
    109 H109      -77.0226   24.7178  -71.8169 H         1 UNK         0.0781 
    110 H110      -75.0068   26.5609  -69.1516 H         1 UNK         0.0836 
    111 H111      -76.4967   25.6582  -69.2400 H         1 UNK         0.0836 
    112 H112      -77.3608   22.7513  -73.6048 H         1 UNK         0.3022 
    113 H113      -77.4303   22.0246  -77.0063 H         1 UNK         0.0747 
    114 H114      -77.7073   19.6226  -76.4570 H         1 UNK         0.0793 
    115 H115      -76.0142   20.0685  -76.3455 H         1 UNK         0.0793 
    116 H116      -76.9596   19.8666  -74.8771 H         1 UNK         0.0793 
    117 H117      -79.1630   21.0675  -75.0253 H         1 UNK         0.3047 
    118 H118      -81.2411   21.9950  -74.9475 H         1 UNK         0.0822 
    119 H119      -80.1205   22.3885  -72.7559 H         1 UNK         0.0807 
    120 H120      -81.7138   23.1224  -72.7522 H         1 UNK         0.0807 
    121 H121      -80.2787   24.1269  -72.9528 H         1 UNK         0.0807 
    122 H122      -81.9196   24.7843  -74.7122 H         1 UNK         0.2946 
    123 H123      -82.7524   25.5314  -77.9068 H         1 UNK         0.1144 
    124 H124      -85.2175   25.4518  -77.5287 H         1 UNK         0.0793 
    125 H125      -85.0011   24.2464  -76.2583 H         1 UNK         0.0793 
    126 H126      -84.5996   23.8582  -77.9250 H         1 UNK         0.0793 
    127 H127      -83.9465   26.2797  -75.3552 H         1 UNK         0.2896 
@<TRIPOS>BOND
     1    1    2 1    
     2    1   67 1    
     3    1   68 1    
     4    1   69 1    
     5    2    3 2    
     6    2    4 am   BACKBONE|DICT|INTERRES
     7    4    5 1    
     8    4   70 1    
     9    5    6 1    
    10    5   65 1    
    11    5   71 1    
    12    6    7 1    
    13    6   72 1    
    14    6   73 1    
    15    7    8 1    
    16    8    9 1    
    17    8   74 1    
    18    8   75 1    
    19    9   10 ar   
    20    9   14 ar   
    21   10   11 ar   
    22   10   76 1    
    23   11   12 ar   
    24   11   48 1    
    25   12   13 ar   
    26   12   77 1    
    27   13   14 ar   
    28   13   15 1    
    29   14   78 1    
    30   15   16 1    
    31   15   79 1    
    32   15   80 1    
    33   16   17 1    
    34   17   18 1    
    35   17   81 1    
    36   17   82 1    
    37   18   19 1    
    38   18   22 1    
    39   18   83 1    
    40   19   20 am   BACKBONE|DICT|INTERRES
    41   19   21 2    
    42   20   84 1    
    43   20   85 1    
    44   22   23 am   BACKBONE|DICT|INTERRES
    45   22   86 1    
    46   23   24 2    
    47   23   25 1    
    48   25   26 1    
    49   25   27 1    
    50   25   87 1    
    51   26   88 1    
    52   26   89 1    
    53   26   90 1    
    54   27   28 am   BACKBONE|DICT|INTERRES
    55   27   91 1    
    56   28   29 2    
    57   28   30 1    
    58   30   31 1    
    59   30   32 1    
    60   30   92 1    
    61   31   93 1    
    62   31   94 1    
    63   31   95 1    
    64   32   33 am   BACKBONE|DICT|INTERRES
    65   32   96 1    
    66   33   34 2    
    67   33   35 1    
    68   35   36 1    
    69   35   37 1    
    70   35   97 1    
    71   36   98 1    
    72   36   99 1    
    73   36  100 1    
    74   37   38 am   BACKBONE|DICT|INTERRES
    75   37  101 1    
    76   38   39 2    
    77   38   40 1    
    78   40   41 1    
    79   40   42 1    
    80   40  102 1    
    81   41  103 1    
    82   41  104 1    
    83   41  105 1    
    84   42   43 am   BACKBONE|DICT|INTERRES
    85   42  106 1    
    86   43   44 2    
    87   43   45 1    
    88   45   46 1    
    89   45   49 1    
    90   45  107 1    
    91   46   47 1    
    92   46  108 1    
    93   46  109 1    
    94   47   48 1    
    95   48  110 1    
    96   48  111 1    
    97   49   50 am   BACKBONE|DICT|INTERRES
    98   49  112 1    
    99   50   51 2    
   100   50   52 1    
   101   52   53 1    
   102   52   54 1    
   103   52  113 1    
   104   53  114 1    
   105   53  115 1    
   106   53  116 1    
   107   54   55 am   BACKBONE|DICT|INTERRES
   108   54  117 1    
   109   55   56 2    
   110   55   57 1    
   111   57   58 1    
   112   57   59 1    
   113   57  118 1    
   114   58  119 1    
   115   58  120 1    
   116   58  121 1    
   117   59   60 am   BACKBONE|DICT|INTERRES
   118   59  122 1    
   119   60   61 2    
   120   60   62 1    
   121   62   63 1    
   122   62   64 1    
   123   62  123 1    
   124   63  124 1    
   125   63  125 1    
   126   63  126 1    
   127   64   65 am   BACKBONE|DICT|INTERRES
   128   64  127 1    
   129   65   66 2    
@<TRIPOS>SUBSTRUCTURE
     1 UNK         1 GROUP             0       ****    0 ROOT    
