@<TRIPOS>MOLECULE
3R135
127   129    1
SMALL
USER_CHARGES


@<TRIPOS>ATOM
      1 CA        -76.7108   24.9259  -69.0515 C.3       0 UNK        -0.1998 
      2 C         -76.7630   26.1082  -70.0150 C.2       0 UNK         0.4909 
      3 O         -75.7600   26.7986  -70.1766 O.2       0 UNK        -0.5240 
      4 N         -77.8966   26.3923  -70.6724 N.am      1 UNK        -0.4739 
      5 CA        -79.1829   25.6853  -70.5810 C.3       1 UNK         0.0864 
      6 C6        -80.3472   26.5575  -71.1131 C.3       11 UNK        -0.0881 
      7 S7        -80.5307   28.1016  -70.1577 S.3       11 UNK        -0.2682 
      8 C8        -80.9627   29.3077  -71.4597 C.3       11 UNK         0.0289 
      9 C9        -79.8406   29.6483  -72.4422 C.ar      11 UNK        -0.0687 
     10 C10       -80.1801   30.0539  -73.7369 C.ar      11 UNK        -0.0823 
     11 C11       -79.1952   30.4308  -74.6551 C.ar      11 UNK        -0.0830 
     12 C12       -77.8490   30.3723  -74.2806 C.ar      11 UNK        -0.1021 
     13 C13       -77.4923   29.9724  -72.9885 C.ar      11 UNK        -0.0753 
     14 C14       -78.4900   29.6251  -72.0723 C.ar      11 UNK        -0.0933 
     15 C15       -76.0302   29.9116  -72.5758 C.3       11 UNK         0.0166 
     16 S16       -75.4117   31.5314  -72.0397 S.3       11 UNK        -0.2615 
     17 C17       -73.8687   31.0503  -71.1893 C.3       11 UNK        -0.0865 
     18 CA        -72.6280   31.0674  -72.1206 C.3       10 UNK         0.0862 
     19 C         -71.3078   31.0500  -71.2946 C.2       10 UNK         0.5551 
     20 N         -70.4618   30.0324  -71.4067 N.am      10 UNK        -0.7319 
     21 O         -71.0423   31.9858  -70.5442 O.2       10 UNK        -0.5018 
     22 N         -72.6976   30.0060  -73.1394 N.am      10 UNK        -0.4509 
     23 C         -72.1321   30.0686  -74.3490 C.2       10 UNK         0.4899 
     24 O         -71.5638   31.0729  -74.7793 O.2       10 UNK        -0.4839 
     25 CA        -72.1909   28.8180  -75.2491 C.3       9 UNK         0.0222 
     26 CB        -70.8388   28.0790  -75.2466 C.3       9 UNK        -0.1966 
     27 N         -73.2949   27.8767  -75.0077 N.am      9 UNK        -0.4218 
     28 C         -73.5436   27.1036  -73.9400 C.2       9 UNK         0.5020 
     29 O         -72.9210   27.1749  -72.8805 O.2       9 UNK        -0.5274 
     30 CA        -74.6786   26.0724  -74.0858 C.3       8 UNK         0.0270 
     31 CB        -76.0511   26.7269  -73.8703 C.3       8 UNK        -0.1976 
     32 N         -74.6699   25.4040  -75.3882 N.am      8 UNK        -0.4313 
     33 C         -73.7117   24.5733  -75.8243 C.2       8 UNK         0.5041 
     34 O         -72.7367   24.2301  -75.1551 O.2       8 UNK        -0.5577 
     35 CA        -73.8654   24.0438  -77.2586 C.3       7 UNK         0.0284 
     36 CB        -74.7846   22.8105  -77.2950 C.3       7 UNK        -0.1958 
     37 N         -74.3836   25.0783  -78.1562 N.am      7 UNK        -0.4454 
     38 C         -73.6381   26.0624  -78.6801 C.2       7 UNK         0.5089 
     39 O         -72.4181   26.1484  -78.5406 O.2       7 UNK        -0.5125 
     40 CA        -74.3789   27.1450  -79.4870 C.3       6 UNK         0.0408 
     41 CB        -74.4326   26.7623  -80.9744 C.3       6 UNK        -0.1791 
     42 N         -75.7381   27.4012  -79.0016 N.am      6 UNK        -0.4762 
     43 C         -76.0339   27.9518  -77.8142 C.2       6 UNK         0.5007 
     44 O         -75.1857   28.3428  -77.0145 O.2       6 UNK        -0.5032 
     45 CA        -77.5248   28.0305  -77.4298 C.3       5 UNK         0.0783 
     46 C46       -78.1176   29.3911  -77.8584 C.3       11 UNK        -0.0857 
     47 S47       -79.8200   29.6256  -77.2477 S.3       11 UNK        -0.2512 
     48 C48       -79.6030   30.9572  -76.0249 C.3       11 UNK         0.0225 
     49 N         -78.2953   26.8921  -77.9484 N.am      5 UNK        -0.4615 
     50 C         -78.0845   25.6167  -77.6045 C.2       4 UNK         0.5053 
     51 O         -77.1956   25.2528  -76.8289 O.2       4 UNK        -0.5105 
     52 CA        -78.9620   24.5680  -78.2891 C.3       4 UNK         0.0263 
     53 CB        -78.3018   24.0689  -79.5860 C.3       4 UNK        -0.1981 
     54 N         -79.1371   23.4545  -77.3658 N.am      4 UNK        -0.4224 
     55 C         -80.2403   22.7073  -77.2480 C.2       3 UNK         0.4895 
     56 O         -81.2157   22.8091  -77.9936 O.2       3 UNK        -0.5091 
     57 CA        -80.2789   21.6674  -76.1090 C.3       3 UNK         0.0250 
     58 CB        -80.0693   20.2519  -76.6729 C.3       3 UNK        -0.1996 
     59 N         -79.3138   21.8945  -75.0248 N.am      3 UNK        -0.4254 
     60 C         -79.2967   22.9589  -74.2098 C.2       2 UNK         0.5004 
     61 O         -80.0919   23.8977  -74.2990 O.2       2 UNK        -0.5226 
     62 CA        -78.1806   22.9754  -73.1459 C.3       2 UNK         0.0269 
     63 CB        -76.7885   22.9480  -73.8034 C.3       2 UNK        -0.1926 
     64 N         -78.2686   24.1534  -72.2786 N.am      2 UNK        -0.4687 
     65 C         -79.1700   24.3200  -71.3007 C.2       1 UNK         0.5165 
     66 O         -79.9609   23.4445  -70.9465 O.2       1 UNK        -0.5079 
     67 H67       -76.8248   23.9823  -69.5835 H         1 UNK         0.0900 
     68 H68       -77.4859   25.0013  -68.2900 H         1 UNK         0.0900 
     69 H69       -75.7501   24.8993  -68.5376 H         1 UNK         0.0900 
     70 H70       -77.9058   27.1984  -71.2790 H         1 UNK         0.2959 
     71 H71       -79.3882   25.4802  -69.5286 H         1 UNK         0.1079 
     72 H72       -80.1977   26.7910  -72.1695 H         1 UNK         0.0837 
     73 H73       -81.2947   26.0180  -71.0518 H         1 UNK         0.0837 
     74 H74       -81.8327   28.9289  -71.9988 H         1 UNK         0.0685 
     75 H75       -81.2802   30.2320  -70.9757 H         1 UNK         0.0685 
     76 H76       -81.2214   30.1030  -74.0261 H         1 UNK         0.1434 
     77 H77       -77.0789   30.6608  -74.9831 H         1 UNK         0.1329 
     78 H78       -78.2091   29.3495  -71.0656 H         1 UNK         0.1335 
     79 H79       -75.4251   29.5644  -73.4129 H         1 UNK         0.0680 
     80 H80       -75.9003   29.1873  -71.7704 H         1 UNK         0.0680 
     81 H81       -73.9846   30.0739  -70.7153 H         1 UNK         0.1032 
     82 H82       -73.7385   31.7599  -70.3696 H         1 UNK         0.1032 
     83 H83       -72.6300   32.0295  -72.6368 H         1 UNK         0.0461 
     84 H84       -69.6086   30.0363  -70.8702 H         1 UNK         0.3453 
     85 H85       -70.6767   29.2559  -72.0115 H         1 UNK         0.3453 
     86 H86       -73.0481   29.1029  -72.8372 H         1 UNK         0.2984 
     87 H87       -72.3560   29.1875  -76.2624 H         1 UNK         0.0554 
     88 H88       -70.8374   27.2588  -75.9652 H         1 UNK         0.0847 
     89 H89       -70.6022   27.6650  -74.2661 H         1 UNK         0.0847 
     90 H90       -70.0243   28.7508  -75.5208 H         1 UNK         0.0847 
     91 H91       -73.9559   27.8198  -75.7814 H         1 UNK         0.3141 
     92 H92       -74.5383   25.3075  -73.3191 H         1 UNK         0.0743 
     93 H93       -76.1983   27.5802  -74.5302 H         1 UNK         0.0784 
     94 H94       -76.8704   26.0318  -74.0473 H         1 UNK         0.0784 
     95 H95       -76.1435   27.0858  -72.8478 H         1 UNK         0.0784 
     96 H96       -75.4757   25.5579  -75.9873 H         1 UNK         0.3213 
     97 H97       -72.8772   23.7370  -77.6090 H         1 UNK         0.0855 
     98 H98       -75.7928   23.0371  -76.9497 H         1 UNK         0.0814 
     99 H99       -74.3944   22.0186  -76.6543 H         1 UNK         0.0814 
    100 H100      -74.8600   22.4027  -78.3030 H         1 UNK         0.0814 
    101 H101      -75.3845   25.1086  -78.2876 H         1 UNK         0.3105 
    102 H102      -73.8093   28.0722  -79.3943 H         1 UNK         0.0547 
    103 H103      -73.4300   26.5893  -81.3683 H         1 UNK         0.0837 
    104 H104      -75.0080   25.8503  -81.1386 H         1 UNK         0.0837 
    105 H105      -74.8802   27.5556  -81.5732 H         1 UNK         0.0837 
    106 H106      -76.5000   27.1147  -79.5993 H         1 UNK         0.3020 
    107 H107      -77.5728   27.9771  -76.3405 H         1 UNK         0.1245 
    108 H108      -77.4908   30.2112  -77.5029 H         1 UNK         0.0781 
    109 H109      -78.1328   29.4771  -78.9466 H         1 UNK         0.0781 
    110 H110      -78.8820   31.6922  -76.3859 H         1 UNK         0.0836 
    111 H111      -80.5475   31.4964  -75.9368 H         1 UNK         0.0836 
    112 H112      -79.0478   27.1173  -78.5835 H         1 UNK         0.3022 
    113 H113      -79.9309   25.0181  -78.5164 H         1 UNK         0.0747 
    114 H114      -78.9236   23.3237  -80.0825 H         1 UNK         0.0793 
    115 H115      -78.1519   24.8863  -80.2923 H         1 UNK         0.0793 
    116 H116      -77.3281   23.6154  -79.3952 H         1 UNK         0.0793 
    117 H117      -78.3997   23.3587  -76.6805 H         1 UNK         0.3047 
    118 H118      -81.2782   21.7158  -75.6711 H         1 UNK         0.0822 
    119 H119      -80.1952   19.4926  -75.9008 H         1 UNK         0.0807 
    120 H120      -79.0748   20.1330  -77.1049 H         1 UNK         0.0807 
    121 H121      -80.7935   20.0325  -77.4590 H         1 UNK         0.0807 
    122 H122      -78.6229   21.1705  -74.8879 H         1 UNK         0.2946 
    123 H123      -78.2943   22.0828  -72.5259 H         1 UNK         0.1144 
    124 H124      -76.5991   21.9939  -74.2961 H         1 UNK         0.0793 
    125 H125      -75.9941   23.0880  -73.0700 H         1 UNK         0.0793 
    126 H126      -76.6890   23.7247  -74.5601 H         1 UNK         0.0793 
    127 H127      -77.6741   24.9345  -72.5095 H         1 UNK         0.2896 
@<TRIPOS>BOND
     1    1    2 1    
     2    1   67 1    
     3    1   68 1    
     4    1   69 1    
     5    2    3 2    
     6    2    4 am   BACKBONE|DICT|INTERRES
     7    4    5 1    
     8    4   70 1    
     9    5    6 1    
    10    5   65 1    
    11    5   71 1    
    12    6    7 1    
    13    6   72 1    
    14    6   73 1    
    15    7    8 1    
    16    8    9 1    
    17    8   74 1    
    18    8   75 1    
    19    9   10 ar   
    20    9   14 ar   
    21   10   11 ar   
    22   10   76 1    
    23   11   12 ar   
    24   11   48 1    
    25   12   13 ar   
    26   12   77 1    
    27   13   14 ar   
    28   13   15 1    
    29   14   78 1    
    30   15   16 1    
    31   15   79 1    
    32   15   80 1    
    33   16   17 1    
    34   17   18 1    
    35   17   81 1    
    36   17   82 1    
    37   18   19 1    
    38   18   22 1    
    39   18   83 1    
    40   19   20 am   BACKBONE|DICT|INTERRES
    41   19   21 2    
    42   20   84 1    
    43   20   85 1    
    44   22   23 am   BACKBONE|DICT|INTERRES
    45   22   86 1    
    46   23   24 2    
    47   23   25 1    
    48   25   26 1    
    49   25   27 1    
    50   25   87 1    
    51   26   88 1    
    52   26   89 1    
    53   26   90 1    
    54   27   28 am   BACKBONE|DICT|INTERRES
    55   27   91 1    
    56   28   29 2    
    57   28   30 1    
    58   30   31 1    
    59   30   32 1    
    60   30   92 1    
    61   31   93 1    
    62   31   94 1    
    63   31   95 1    
    64   32   33 am   BACKBONE|DICT|INTERRES
    65   32   96 1    
    66   33   34 2    
    67   33   35 1    
    68   35   36 1    
    69   35   37 1    
    70   35   97 1    
    71   36   98 1    
    72   36   99 1    
    73   36  100 1    
    74   37   38 am   BACKBONE|DICT|INTERRES
    75   37  101 1    
    76   38   39 2    
    77   38   40 1    
    78   40   41 1    
    79   40   42 1    
    80   40  102 1    
    81   41  103 1    
    82   41  104 1    
    83   41  105 1    
    84   42   43 am   BACKBONE|DICT|INTERRES
    85   42  106 1    
    86   43   44 2    
    87   43   45 1    
    88   45   46 1    
    89   45   49 1    
    90   45  107 1    
    91   46   47 1    
    92   46  108 1    
    93   46  109 1    
    94   47   48 1    
    95   48  110 1    
    96   48  111 1    
    97   49   50 am   BACKBONE|DICT|INTERRES
    98   49  112 1    
    99   50   51 2    
   100   50   52 1    
   101   52   53 1    
   102   52   54 1    
   103   52  113 1    
   104   53  114 1    
   105   53  115 1    
   106   53  116 1    
   107   54   55 am   BACKBONE|DICT|INTERRES
   108   54  117 1    
   109   55   56 2    
   110   55   57 1    
   111   57   58 1    
   112   57   59 1    
   113   57  118 1    
   114   58  119 1    
   115   58  120 1    
   116   58  121 1    
   117   59   60 am   BACKBONE|DICT|INTERRES
   118   59  122 1    
   119   60   61 2    
   120   60   62 1    
   121   62   63 1    
   122   62   64 1    
   123   62  123 1    
   124   63  124 1    
   125   63  125 1    
   126   63  126 1    
   127   64   65 am   BACKBONE|DICT|INTERRES
   128   64  127 1    
   129   65   66 2    
@<TRIPOS>SUBSTRUCTURE
     1 UNK         1 GROUP             0       ****    0 ROOT    
