@<TRIPOS>MOLECULE
3R135
127   129    1
SMALL
USER_CHARGES


@<TRIPOS>ATOM
      1 CA        -77.8269   22.8066  -78.5762 C.3       0 UNK        -0.1998 
      2 C         -78.3622   22.2371  -77.2701 C.2       0 UNK         0.4909 
      3 O         -79.2093   21.3431  -77.2930 O.2       0 UNK        -0.5240 
      4 N         -77.8732   22.7482  -76.1333 N.am      1 UNK        -0.4739 
      5 CA        -78.3635   22.4246  -74.7905 C.3       1 UNK         0.0864 
      6 C6        -77.2628   22.6471  -73.7190 C.3       11 UNK        -0.0881 
      7 S7        -76.6638   24.3696  -73.5841 S.3       11 UNK        -0.2682 
      8 C8        -77.2948   24.8079  -71.9323 C.3       11 UNK         0.0289 
      9 C9        -77.1297   26.2945  -71.6735 C.ar      11 UNK        -0.0687 
     10 C10       -78.0183   27.1972  -72.2581 C.ar      11 UNK        -0.0823 
     11 C11       -77.8174   28.5748  -72.1320 C.ar      11 UNK        -0.0830 
     12 C12       -76.7750   29.0461  -71.3257 C.ar      11 UNK        -0.1021 
     13 C13       -75.9060   28.1483  -70.6975 C.ar      11 UNK        -0.0753 
     14 C14       -76.0798   26.7733  -70.8862 C.ar      11 UNK        -0.0933 
     15 C15       -74.7739   28.6531  -69.8171 C.3       11 UNK         0.0166 
     16 S16       -73.2337   28.8728  -70.7611 S.3       11 UNK        -0.2615 
     17 C17       -73.3649   30.5966  -71.3497 C.3       11 UNK        -0.0865 
     18 CA        -73.6532   30.7317  -72.8683 C.3       10 UNK         0.0862 
     19 C         -73.7850   32.2375  -73.2320 C.2       10 UNK         0.5551 
     20 N         -75.0009   32.7330  -73.4161 N.am      10 UNK        -0.7319 
     21 O         -72.7958   32.9654  -73.2939 O.2       10 UNK        -0.5018 
     22 N         -72.6551   30.0065  -73.6747 N.am      10 UNK        -0.4509 
     23 C         -72.5175   30.0228  -75.0089 C.2       10 UNK         0.4899 
     24 O         -73.2169   30.6856  -75.7748 O.2       10 UNK        -0.4839 
     25 CA        -71.4383   29.1041  -75.6103 C.3       9 UNK         0.0222 
     26 CB        -70.0113   29.6062  -75.3110 C.3       9 UNK        -0.1966 
     27 N         -71.6387   27.6964  -75.2465 N.am      9 UNK        -0.4218 
     28 C         -71.4937   27.1059  -74.0502 C.2       9 UNK         0.5020 
     29 O         -70.9626   27.6522  -73.0827 O.2       9 UNK        -0.5274 
     30 CA        -72.0747   25.6884  -73.8844 C.3       8 UNK         0.0270 
     31 CB        -73.0122   25.6246  -72.6648 C.3       8 UNK        -0.1976 
     32 N         -72.8392   25.2732  -75.0628 N.am      8 UNK        -0.4313 
     33 C         -72.5053   24.2847  -75.9010 C.2       8 UNK         0.5041 
     34 O         -71.5005   23.5843  -75.7692 O.2       8 UNK        -0.5577 
     35 CA        -73.4455   24.0225  -77.0941 C.3       7 UNK         0.0284 
     36 CB        -74.3864   22.8496  -76.7771 C.3       7 UNK        -0.1958 
     37 N         -74.2361   25.1906  -77.5036 N.am      7 UNK        -0.4454 
     38 C         -73.7221   26.2872  -78.0779 C.2       7 UNK         0.5089 
     39 O         -72.5246   26.4297  -78.3248 O.2       7 UNK        -0.5125 
     40 CA        -74.6935   27.4399  -78.3983 C.3       6 UNK         0.0408 
     41 CB        -75.3164   27.2374  -79.7891 C.3       6 UNK        -0.1791 
     42 N         -75.7669   27.6883  -77.4250 N.am      6 UNK        -0.4762 
     43 C         -75.6510   27.7761  -76.0925 C.2       6 UNK         0.5007 
     44 O         -74.6399   27.4473  -75.4755 O.2       6 UNK        -0.5032 
     45 CA        -76.8544   28.3118  -75.2917 C.3       5 UNK         0.0783 
     46 C46       -76.8167   29.8657  -75.2151 C.3       11 UNK        -0.0857 
     47 S47       -77.7836   30.7458  -73.9231 S.3       11 UNK        -0.2512 
     48 C48       -78.7064   29.5337  -72.9122 C.3       11 UNK         0.0225 
     49 N         -78.1478   27.7456  -75.7112 N.am      5 UNK        -0.4615 
     50 C         -78.8224   27.9657  -76.8488 C.2       4 UNK         0.5053 
     51 O         -78.4151   28.6893  -77.7576 O.2       4 UNK        -0.5105 
     52 CA        -80.1541   27.2184  -77.0344 C.3       4 UNK         0.0263 
     53 CB        -79.9366   25.9709  -77.9065 C.3       4 UNK        -0.1981 
     54 N         -80.7868   26.8286  -75.7679 N.am      4 UNK        -0.4224 
     55 C         -81.4764   27.6752  -74.9853 C.2       3 UNK         0.4895 
     56 O         -81.6299   28.8655  -75.2611 O.2       3 UNK        -0.5091 
     57 CA        -82.0987   27.1315  -73.6833 C.3       3 UNK         0.0250 
     58 CB        -83.5248   27.6720  -73.4668 C.3       3 UNK        -0.1996 
     59 N         -82.1417   25.6691  -73.6611 N.am      3 UNK        -0.4254 
     60 C         -81.5687   24.8845  -72.7395 C.2       2 UNK         0.5004 
     61 O         -80.9624   25.3061  -71.7546 O.2       2 UNK        -0.5226 
     62 CA        -81.6575   23.3606  -72.9668 C.3       2 UNK         0.0269 
     63 CB        -82.8063   22.9360  -73.9116 C.3       2 UNK        -0.1926 
     64 N         -80.3844   22.7910  -73.4335 N.am      2 UNK        -0.4687 
     65 C         -79.6628   23.2041  -74.4880 C.2       1 UNK         0.5165 
     66 O         -79.9817   24.1639  -75.1974 O.2       1 UNK        -0.5079 
     67 H67       -77.1887   23.6749  -78.4137 H         1 UNK         0.0900 
     68 H68       -78.6538   23.1140  -79.2165 H         1 UNK         0.0900 
     69 H69       -77.2482   22.0506  -79.1062 H         1 UNK         0.0900 
     70 H70       -77.2171   23.5130  -76.1660 H         1 UNK         0.2959 
     71 H71       -78.6244   21.3637  -74.7753 H         1 UNK         0.1079 
     72 H72       -76.4020   22.0189  -73.9538 H         1 UNK         0.0837 
     73 H73       -77.6064   22.2982  -72.7436 H         1 UNK         0.0837 
     74 H74       -78.3494   24.5402  -71.8567 H         1 UNK         0.0685 
     75 H75       -76.7685   24.2232  -71.1762 H         1 UNK         0.0685 
     76 H76       -78.8297   26.8175  -72.8632 H         1 UNK         0.1434 
     77 H77       -76.6255   30.1105  -71.2082 H         1 UNK         0.1329 
     78 H78       -75.3898   26.0776  -70.4287 H         1 UNK         0.1335 
     79 H79       -74.5869   27.9325  -69.0194 H         1 UNK         0.0680 
     80 H80       -75.0562   29.5809  -69.3177 H         1 UNK         0.0680 
     81 H81       -72.4256   31.0958  -71.1030 H         1 UNK         0.1032 
     82 H82       -74.1323   31.1155  -70.7727 H         1 UNK         0.1032 
     83 H83       -74.6092   30.2449  -73.0648 H         1 UNK         0.0461 
     84 H84       -75.8198   32.1442  -73.3757 H         1 UNK         0.3453 
     85 H85       -75.1006   33.7119  -73.6341 H         1 UNK         0.3453 
     86 H86       -72.0489   29.3787  -73.1568 H         1 UNK         0.2984 
     87 H87       -71.5668   29.1358  -76.6937 H         1 UNK         0.0554 
     88 H88       -69.2605   28.9596  -75.7650 H         1 UNK         0.0847 
     89 H89       -69.8045   29.6606  -74.2421 H         1 UNK         0.0847 
     90 H90       -69.8641   30.6083  -75.7155 H         1 UNK         0.0847 
     91 H91       -72.1003   27.1474  -75.9592 H         1 UNK         0.3141 
     92 H92       -71.2337   25.0145  -73.7109 H         1 UNK         0.0743 
     93 H93       -73.8435   26.3245  -72.7654 H         1 UNK         0.0784 
     94 H94       -73.4312   24.6265  -72.5355 H         1 UNK         0.0784 
     95 H95       -72.4835   25.8765  -71.7446 H         1 UNK         0.0784 
     96 H96       -73.6652   25.8350  -75.2618 H         1 UNK         0.3213 
     97 H97       -72.8179   23.7328  -77.9400 H         1 UNK         0.0855 
     98 H98       -75.0386   23.0750  -75.9340 H         1 UNK         0.0814 
     99 H99       -73.8178   21.9567  -76.5128 H         1 UNK         0.0814 
    100 H100      -75.0052   22.5900  -77.6353 H         1 UNK         0.0814 
    101 H101      -75.2249   25.1794  -77.3068 H         1 UNK         0.3105 
    102 H102      -74.0954   28.3533  -78.4293 H         1 UNK         0.0547 
    103 H103      -75.9798   26.3714  -79.8120 H         1 UNK         0.0837 
    104 H104      -75.8938   28.1097  -80.0970 H         1 UNK         0.0837 
    105 H105      -74.5461   27.0793  -80.5455 H         1 UNK         0.0837 
    106 H106      -76.6563   27.9986  -77.8093 H         1 UNK         0.3020 
    107 H107      -76.6508   27.9288  -74.2981 H         1 UNK         0.1245 
    108 H108      -75.7879   30.1972  -75.0699 H         1 UNK         0.0781 
    109 H109      -77.1023   30.2935  -76.1767 H         1 UNK         0.0781 
    110 H110      -79.3286   30.0798  -72.2022 H         1 UNK         0.0836 
    111 H111      -79.3943   28.9968  -73.5616 H         1 UNK         0.0836 
    112 H112      -78.5462   27.0730  -75.0738 H         1 UNK         0.3022 
    113 H113      -80.8332   27.8863  -77.5691 H         1 UNK         0.0747 
    114 H114      -80.8657   25.4205  -78.0554 H         1 UNK         0.0793 
    115 H115      -79.5595   26.2450  -78.8927 H         1 UNK         0.0793 
    116 H116      -79.2114   25.2903  -77.4607 H         1 UNK         0.0793 
    117 H117      -80.6536   25.8604  -75.4777 H         1 UNK         0.3047 
    118 H118      -81.4711   27.5019  -72.8700 H         1 UNK         0.0822 
    119 H119      -83.9499   27.3024  -72.5334 H         1 UNK         0.0807 
    120 H120      -84.1933   27.3809  -74.2780 H         1 UNK         0.0807 
    121 H121      -83.5313   28.7614  -73.4117 H         1 UNK         0.0807 
    122 H122      -82.5929   25.2235  -74.4481 H         1 UNK         0.2946 
    123 H123      -81.8602   22.9242  -71.9867 H         1 UNK         0.1144 
    124 H124      -82.9165   21.8514  -73.9243 H         1 UNK         0.0793 
    125 H125      -82.6409   23.2568  -74.9411 H         1 UNK         0.0793 
    126 H126      -83.7618   23.3469  -73.5818 H         1 UNK         0.0793 
    127 H127      -80.0314   22.0195  -72.8835 H         1 UNK         0.2896 
@<TRIPOS>BOND
     1    1    2 1    
     2    1   67 1    
     3    1   68 1    
     4    1   69 1    
     5    2    3 2    
     6    2    4 am   BACKBONE|DICT|INTERRES
     7    4    5 1    
     8    4   70 1    
     9    5    6 1    
    10    5   65 1    
    11    5   71 1    
    12    6    7 1    
    13    6   72 1    
    14    6   73 1    
    15    7    8 1    
    16    8    9 1    
    17    8   74 1    
    18    8   75 1    
    19    9   10 ar   
    20    9   14 ar   
    21   10   11 ar   
    22   10   76 1    
    23   11   12 ar   
    24   11   48 1    
    25   12   13 ar   
    26   12   77 1    
    27   13   14 ar   
    28   13   15 1    
    29   14   78 1    
    30   15   16 1    
    31   15   79 1    
    32   15   80 1    
    33   16   17 1    
    34   17   18 1    
    35   17   81 1    
    36   17   82 1    
    37   18   19 1    
    38   18   22 1    
    39   18   83 1    
    40   19   20 am   BACKBONE|DICT|INTERRES
    41   19   21 2    
    42   20   84 1    
    43   20   85 1    
    44   22   23 am   BACKBONE|DICT|INTERRES
    45   22   86 1    
    46   23   24 2    
    47   23   25 1    
    48   25   26 1    
    49   25   27 1    
    50   25   87 1    
    51   26   88 1    
    52   26   89 1    
    53   26   90 1    
    54   27   28 am   BACKBONE|DICT|INTERRES
    55   27   91 1    
    56   28   29 2    
    57   28   30 1    
    58   30   31 1    
    59   30   32 1    
    60   30   92 1    
    61   31   93 1    
    62   31   94 1    
    63   31   95 1    
    64   32   33 am   BACKBONE|DICT|INTERRES
    65   32   96 1    
    66   33   34 2    
    67   33   35 1    
    68   35   36 1    
    69   35   37 1    
    70   35   97 1    
    71   36   98 1    
    72   36   99 1    
    73   36  100 1    
    74   37   38 am   BACKBONE|DICT|INTERRES
    75   37  101 1    
    76   38   39 2    
    77   38   40 1    
    78   40   41 1    
    79   40   42 1    
    80   40  102 1    
    81   41  103 1    
    82   41  104 1    
    83   41  105 1    
    84   42   43 am   BACKBONE|DICT|INTERRES
    85   42  106 1    
    86   43   44 2    
    87   43   45 1    
    88   45   46 1    
    89   45   49 1    
    90   45  107 1    
    91   46   47 1    
    92   46  108 1    
    93   46  109 1    
    94   47   48 1    
    95   48  110 1    
    96   48  111 1    
    97   49   50 am   BACKBONE|DICT|INTERRES
    98   49  112 1    
    99   50   51 2    
   100   50   52 1    
   101   52   53 1    
   102   52   54 1    
   103   52  113 1    
   104   53  114 1    
   105   53  115 1    
   106   53  116 1    
   107   54   55 am   BACKBONE|DICT|INTERRES
   108   54  117 1    
   109   55   56 2    
   110   55   57 1    
   111   57   58 1    
   112   57   59 1    
   113   57  118 1    
   114   58  119 1    
   115   58  120 1    
   116   58  121 1    
   117   59   60 am   BACKBONE|DICT|INTERRES
   118   59  122 1    
   119   60   61 2    
   120   60   62 1    
   121   62   63 1    
   122   62   64 1    
   123   62  123 1    
   124   63  124 1    
   125   63  125 1    
   126   63  126 1    
   127   64   65 am   BACKBONE|DICT|INTERRES
   128   64  127 1    
   129   65   66 2    
@<TRIPOS>SUBSTRUCTURE
     1 UNK         1 GROUP             0       ****    0 ROOT    
