@<TRIPOS>MOLECULE
3R135
127   129    1
SMALL
USER_CHARGES


@<TRIPOS>ATOM
      1 CA        -75.6887   22.8542  -74.0768 C.3       0 UNK        -0.1998 
      2 C         -76.8684   23.0572  -73.1410 C.2       0 UNK         0.4909 
      3 O         -77.1480   22.1946  -72.3082 O.2       0 UNK        -0.5240 
      4 N         -77.5767   24.1840  -73.2798 N.am      1 UNK        -0.4739 
      5 CA        -78.7241   24.5565  -72.4467 C.3       1 UNK         0.0864 
      6 C6        -78.8256   26.0932  -72.2720 C.3       11 UNK        -0.0881 
      7 S7        -77.4413   26.7086  -71.2507 S.3       11 UNK        -0.2682 
      8 C8        -78.2129   28.0422  -70.2840 C.3       11 UNK         0.0289 
      9 C9        -78.1163   29.3735  -71.0117 C.ar      11 UNK        -0.0687 
     10 C10       -79.0673   29.7200  -71.9752 C.ar      11 UNK        -0.0823 
     11 C11       -78.9759   30.9383  -72.6561 C.ar      11 UNK        -0.0830 
     12 C12       -77.9341   31.8187  -72.3520 C.ar      11 UNK        -0.1021 
     13 C13       -76.9872   31.4916  -71.3780 C.ar      11 UNK        -0.0753 
     14 C14       -77.0787   30.2641  -70.7149 C.ar      11 UNK        -0.0933 
     15 C15       -75.8888   32.4850  -71.0306 C.3       11 UNK         0.0166 
     16 S16       -74.4587   32.3253  -72.1419 S.3       11 UNK        -0.2615 
     17 C17       -73.5007   31.0288  -71.2893 C.3       11 UNK        -0.0865 
     18 CA        -72.1693   30.7112  -72.0181 C.3       10 UNK         0.0862 
     19 C         -71.2407   29.8280  -71.1305 C.2       10 UNK         0.5551 
     20 N         -70.8333   28.6349  -71.5476 N.am      10 UNK        -0.7319 
     21 O         -70.8741   30.2429  -70.0337 O.2       10 UNK        -0.5018 
     22 N         -72.4189   30.1807  -73.3664 N.am      10 UNK        -0.4509 
     23 C         -71.5357   30.1640  -74.3717 C.2       10 UNK         0.4899 
     24 O         -70.4247   30.6942  -74.3182 O.2       10 UNK        -0.4839 
     25 CA        -71.9747   29.4026  -75.6402 C.3       9 UNK         0.0222 
     26 CB        -70.7899   29.0203  -76.5514 C.3       9 UNK        -0.1966 
     27 N         -72.7979   28.2217  -75.3435 N.am      9 UNK        -0.4218 
     28 C         -72.4668   27.1751  -74.5692 C.2       9 UNK         0.5020 
     29 O         -71.3905   27.0610  -73.9816 O.2       9 UNK        -0.5274 
     30 CA        -73.5328   26.0848  -74.3957 C.3       8 UNK         0.0270 
     31 CB        -74.5650   26.5084  -73.3396 C.3       8 UNK        -0.1976 
     32 N         -74.2025   25.7723  -75.6591 N.am      8 UNK        -0.4313 
     33 C         -73.6513   25.0353  -76.6348 C.2       8 UNK         0.5041 
     34 O         -72.5720   24.4521  -76.5282 O.2       8 UNK        -0.5577 
     35 CA        -74.4255   24.9382  -77.9592 C.3       7 UNK         0.0284 
     36 CB        -75.3757   23.7324  -77.9522 C.3       7 UNK        -0.1958 
     37 N         -75.1787   26.1590  -78.2522 N.am      7 UNK        -0.4454 
     38 C         -74.6171   27.2977  -78.6829 C.2       7 UNK         0.5089 
     39 O         -73.4207   27.4149  -78.9471 O.2       7 UNK        -0.5125 
     40 CA        -75.5380   28.5209  -78.8312 C.3       6 UNK         0.0408 
     41 CB        -76.0582   28.6275  -80.2733 C.3       6 UNK        -0.1791 
     42 N         -76.6743   28.5228  -77.9054 N.am      6 UNK        -0.4762 
     43 C         -76.5835   28.6315  -76.5711 C.2       6 UNK         0.5007 
     44 O         -75.5162   28.6975  -75.9617 O.2       6 UNK        -0.5032 
     45 CA        -77.9135   28.6236  -75.7950 C.3       5 UNK         0.0783 
     46 C46       -78.5348   30.0452  -75.7777 C.3       11 UNK        -0.0857 
     47 S47       -80.1967   30.0774  -75.0147 S.3       11 UNK        -0.2512 
     48 C48       -80.0134   31.3246  -73.7013 C.3       11 UNK         0.0225 
     49 N         -78.8520   27.6362  -76.3364 N.am      5 UNK        -0.4615 
     50 C         -78.6911   26.3096  -76.3654 C.2       4 UNK         0.5053 
     51 O         -77.6810   25.7247  -75.9610 O.2       4 UNK        -0.5105 
     52 CA        -79.8980   25.5417  -76.9258 C.3       4 UNK         0.0263 
     53 CB        -80.1793   25.8872  -78.4054 C.3       4 UNK        -0.1981 
     54 N         -79.8177   24.1000  -76.6770 N.am      4 UNK        -0.4224 
     55 C         -79.1934   23.1412  -77.3783 C.2       3 UNK         0.4895 
     56 O         -78.6159   23.3325  -78.4482 O.2       3 UNK        -0.5091 
     57 CA        -79.2146   21.7116  -76.7929 C.3       3 UNK         0.0250 
     58 CB        -77.8290   21.0474  -76.8840 C.3       3 UNK        -0.1996 
     59 N         -79.6651   21.6741  -75.3983 N.am      3 UNK        -0.4254 
     60 C         -80.9398   21.5989  -74.9894 C.2       2 UNK         0.5004 
     61 O         -81.8968   21.4422  -75.7468 O.2       2 UNK        -0.5226 
     62 CA        -81.1869   21.7880  -73.4809 C.3       2 UNK         0.0269 
     63 CB        -81.2575   20.4274  -72.7698 C.3       2 UNK        -0.1926 
     64 N         -80.1598   22.6190  -72.8398 N.am      2 UNK        -0.4687 
     65 C         -79.9837   23.9292  -73.0663 C.2       1 UNK         0.5165 
     66 O         -80.7164   24.5972  -73.7972 O.2       1 UNK        -0.5079 
     67 H67       -75.6378   21.8181  -74.4092 H         1 UNK         0.0900 
     68 H68       -74.7576   23.0916  -73.5631 H         1 UNK         0.0900 
     69 H69       -75.7669   23.4914  -74.9550 H         1 UNK         0.0900 
     70 H70       -77.3630   24.8254  -74.0359 H         1 UNK         0.2959 
     71 H71       -78.6102   24.1233  -71.4497 H         1 UNK         0.1079 
     72 H72       -79.7697   26.3569  -71.7923 H         1 UNK         0.0837 
     73 H73       -78.8166   26.6044  -73.2361 H         1 UNK         0.0837 
     74 H74       -77.7039   28.1087  -69.3213 H         1 UNK         0.0685 
     75 H75       -79.2526   27.8032  -70.0565 H         1 UNK         0.0685 
     76 H76       -79.8743   29.0372  -72.2033 H         1 UNK         0.1434 
     77 H77       -77.8616   32.7677  -72.8659 H         1 UNK         0.1329 
     78 H78       -76.3465   30.0045  -69.9627 H         1 UNK         0.1335 
     79 H79       -76.2787   33.5009  -71.1109 H         1 UNK         0.0680 
     80 H80       -75.5746   32.3662  -69.9924 H         1 UNK         0.0680 
     81 H81       -74.1110   30.1286  -71.1984 H         1 UNK         0.1032 
     82 H82       -73.3088   31.3748  -70.2715 H         1 UNK         0.1032 
     83 H83       -71.6335   31.6548  -72.1393 H         1 UNK         0.0461 
     84 H84       -71.0979   28.2687  -72.4562 H         1 UNK         0.3453 
     85 H85       -70.2299   28.0913  -70.9519 H         1 UNK         0.3453 
     86 H86       -73.3119   29.7331  -73.5075 H         1 UNK         0.2984 
     87 H87       -72.6160   30.0854  -76.1993 H         1 UNK         0.0554 
     88 H88       -70.2466   29.9063  -76.8818 H         1 UNK         0.0847 
     89 H89       -71.1319   28.4987  -77.4457 H         1 UNK         0.0847 
     90 H90       -70.0776   28.3736  -76.0379 H         1 UNK         0.0847 
     91 H91       -73.7500   28.2601  -75.7043 H         1 UNK         0.3141 
     92 H92       -73.0319   25.1844  -74.0332 H         1 UNK         0.0743 
     93 H93       -74.0776   26.7778  -72.4014 H         1 UNK         0.0784 
     94 H94       -75.1556   27.3682  -73.6565 H         1 UNK         0.0784 
     95 H95       -75.2531   25.6962  -73.1161 H         1 UNK         0.0784 
     96 H96       -75.0928   26.2183  -75.8341 H         1 UNK         0.3213 
     97 H97       -73.6932   24.7830  -78.7550 H         1 UNK         0.0855 
     98 H98       -76.1813   23.8590  -77.2303 H         1 UNK         0.0814 
     99 H99       -74.8460   22.8136  -77.6972 H         1 UNK         0.0814 
    100 H100      -75.8307   23.5822  -78.9314 H         1 UNK         0.0814 
    101 H101      -76.1690   26.1494  -78.0511 H         1 UNK         0.3105 
    102 H102      -74.9372   29.4081  -78.6196 H         1 UNK         0.0547 
    103 H103      -75.2315   28.6542  -80.9848 H         1 UNK         0.0837 
    104 H104      -76.6894   27.7790  -80.5403 H         1 UNK         0.0837 
    105 H105      -76.6379   29.5388  -80.4210 H         1 UNK         0.0837 
    106 H106      -77.5949   28.4569  -78.3155 H         1 UNK         0.3020 
    107 H107      -77.6870   28.3345  -74.7658 H         1 UNK         0.1245 
    108 H108      -78.6375   30.4369  -76.7918 H         1 UNK         0.0781 
    109 H109      -77.8739   30.7384  -75.2538 H         1 UNK         0.0781 
    110 H110      -80.9765   31.4585  -73.2071 H         1 UNK         0.0836 
    111 H111      -79.7693   32.2835  -74.1613 H         1 UNK         0.0836 
    112 H112      -79.7318   28.0191  -76.6514 H         1 UNK         0.3022 
    113 H113      -80.7631   25.8698  -76.3470 H         1 UNK         0.0747 
    114 H114      -80.9814   25.2712  -78.8120 H         1 UNK         0.0793 
    115 H115      -79.2979   25.7480  -79.0323 H         1 UNK         0.0793 
    116 H116      -80.4888   26.9267  -78.5171 H         1 UNK         0.0793 
    117 H117      -80.2304   23.8258  -75.7945 H         1 UNK         0.3047 
    118 H118      -79.9061   21.1294  -77.4056 H         1 UNK         0.0822 
    119 H119      -77.8437   20.0369  -76.4750 H         1 UNK         0.0807 
    120 H120      -77.0730   21.6180  -76.3467 H         1 UNK         0.0807 
    121 H121      -77.4984   20.9686  -77.9206 H         1 UNK         0.0807 
    122 H122      -78.9546   21.7999  -74.6922 H         1 UNK         0.2946 
    123 H123      -82.1513   22.2891  -73.3681 H         1 UNK         0.1144 
    124 H124      -82.0277   19.7948  -73.2136 H         1 UNK         0.0793 
    125 H125      -81.5051   20.5439  -71.7145 H         1 UNK         0.0793 
    126 H126      -80.3127   19.8862  -72.8359 H         1 UNK         0.0793 
    127 H127      -79.4728   22.1393  -72.2704 H         1 UNK         0.2896 
@<TRIPOS>BOND
     1    1    2 1    
     2    1   67 1    
     3    1   68 1    
     4    1   69 1    
     5    2    3 2    
     6    2    4 am   BACKBONE|DICT|INTERRES
     7    4    5 1    
     8    4   70 1    
     9    5    6 1    
    10    5   65 1    
    11    5   71 1    
    12    6    7 1    
    13    6   72 1    
    14    6   73 1    
    15    7    8 1    
    16    8    9 1    
    17    8   74 1    
    18    8   75 1    
    19    9   10 ar   
    20    9   14 ar   
    21   10   11 ar   
    22   10   76 1    
    23   11   12 ar   
    24   11   48 1    
    25   12   13 ar   
    26   12   77 1    
    27   13   14 ar   
    28   13   15 1    
    29   14   78 1    
    30   15   16 1    
    31   15   79 1    
    32   15   80 1    
    33   16   17 1    
    34   17   18 1    
    35   17   81 1    
    36   17   82 1    
    37   18   19 1    
    38   18   22 1    
    39   18   83 1    
    40   19   20 am   BACKBONE|DICT|INTERRES
    41   19   21 2    
    42   20   84 1    
    43   20   85 1    
    44   22   23 am   BACKBONE|DICT|INTERRES
    45   22   86 1    
    46   23   24 2    
    47   23   25 1    
    48   25   26 1    
    49   25   27 1    
    50   25   87 1    
    51   26   88 1    
    52   26   89 1    
    53   26   90 1    
    54   27   28 am   BACKBONE|DICT|INTERRES
    55   27   91 1    
    56   28   29 2    
    57   28   30 1    
    58   30   31 1    
    59   30   32 1    
    60   30   92 1    
    61   31   93 1    
    62   31   94 1    
    63   31   95 1    
    64   32   33 am   BACKBONE|DICT|INTERRES
    65   32   96 1    
    66   33   34 2    
    67   33   35 1    
    68   35   36 1    
    69   35   37 1    
    70   35   97 1    
    71   36   98 1    
    72   36   99 1    
    73   36  100 1    
    74   37   38 am   BACKBONE|DICT|INTERRES
    75   37  101 1    
    76   38   39 2    
    77   38   40 1    
    78   40   41 1    
    79   40   42 1    
    80   40  102 1    
    81   41  103 1    
    82   41  104 1    
    83   41  105 1    
    84   42   43 am   BACKBONE|DICT|INTERRES
    85   42  106 1    
    86   43   44 2    
    87   43   45 1    
    88   45   46 1    
    89   45   49 1    
    90   45  107 1    
    91   46   47 1    
    92   46  108 1    
    93   46  109 1    
    94   47   48 1    
    95   48  110 1    
    96   48  111 1    
    97   49   50 am   BACKBONE|DICT|INTERRES
    98   49  112 1    
    99   50   51 2    
   100   50   52 1    
   101   52   53 1    
   102   52   54 1    
   103   52  113 1    
   104   53  114 1    
   105   53  115 1    
   106   53  116 1    
   107   54   55 am   BACKBONE|DICT|INTERRES
   108   54  117 1    
   109   55   56 2    
   110   55   57 1    
   111   57   58 1    
   112   57   59 1    
   113   57  118 1    
   114   58  119 1    
   115   58  120 1    
   116   58  121 1    
   117   59   60 am   BACKBONE|DICT|INTERRES
   118   59  122 1    
   119   60   61 2    
   120   60   62 1    
   121   62   63 1    
   122   62   64 1    
   123   62  123 1    
   124   63  124 1    
   125   63  125 1    
   126   63  126 1    
   127   64   65 am   BACKBONE|DICT|INTERRES
   128   64  127 1    
   129   65   66 2    
@<TRIPOS>SUBSTRUCTURE
     1 UNK         1 GROUP             0       ****    0 ROOT    
