@<TRIPOS>MOLECULE
3R135
127   129    1
SMALL
USER_CHARGES


@<TRIPOS>ATOM
      1 CA        -79.5205   25.9781  -68.4766 C.3       0 UNK        -0.1998 
      2 C         -80.9905   25.5675  -68.4142 C.2       0 UNK         0.4909 
      3 O         -81.4951   25.3372  -67.3164 O.2       0 UNK        -0.5240 
      4 N         -81.7346   25.4722  -69.5278 N.am      1 UNK        -0.4739 
      5 CA        -81.3534   25.6429  -70.9389 C.3       1 UNK         0.0864 
      6 C6        -80.6898   27.0193  -71.2385 C.3       11 UNK        -0.0881 
      7 S7        -81.0407   27.6443  -72.9189 S.3       11 UNK        -0.2682 
      8 C8        -79.4071   27.5163  -73.7146 C.3       11 UNK         0.0289 
      9 C9        -78.5541   28.7567  -73.4896 C.ar      11 UNK        -0.0687 
     10 C10       -78.5035   29.7544  -74.4677 C.ar      11 UNK        -0.0823 
     11 C11       -77.6474   30.8492  -74.3172 C.ar      11 UNK        -0.0830 
     12 C12       -76.8971   30.9832  -73.1471 C.ar      11 UNK        -0.1021 
     13 C13       -76.9349   29.9930  -72.1643 C.ar      11 UNK        -0.0753 
     14 C14       -77.7644   28.8816  -72.3411 C.ar      11 UNK        -0.0933 
     15 C15       -76.0550   30.1068  -70.9290 C.3       11 UNK         0.0166 
     16 S16       -74.3944   29.4156  -71.2240 S.3       11 UNK        -0.2615 
     17 C17       -73.5055   30.8076  -72.0108 C.3       11 UNK        -0.0865 
     18 CA        -73.3605   30.6902  -73.5587 C.3       10 UNK         0.0862 
     19 C         -72.7027   31.9513  -74.1957 C.2       10 UNK         0.5551 
     20 N         -71.9343   31.8242  -75.2710 N.am      10 UNK        -0.7319 
     21 O         -72.9111   33.0679  -73.7270 O.2       10 UNK        -0.5018 
     22 N         -72.7947   29.4108  -74.0144 N.am      10 UNK        -0.4509 
     23 C         -71.5926   28.9007  -73.7156 C.2       10 UNK         0.4899 
     24 O         -70.7620   29.4566  -72.9951 O.2       10 UNK        -0.4839 
     25 CA        -71.2770   27.5331  -74.3533 C.3       9 UNK         0.0222 
     26 CB        -70.0402   26.8370  -73.7463 C.3       9 UNK        -0.1966 
     27 N         -72.4541   26.6571  -74.3563 N.am      9 UNK        -0.4218 
     28 C         -73.0892   26.1278  -73.2987 C.2       9 UNK         0.5020 
     29 O         -72.6676   26.1638  -72.1422 O.2       9 UNK        -0.5274 
     30 CA        -74.4526   25.4657  -73.5745 C.3       8 UNK         0.0270 
     31 CB        -75.5763   26.4641  -73.2584 C.3       8 UNK        -0.1976 
     32 N         -74.6054   24.9935  -74.9537 N.am      8 UNK        -0.4313 
     33 C         -73.9327   23.9608  -75.4824 C.2       8 UNK         0.5041 
     34 O         -73.1825   23.2267  -74.8386 O.2       8 UNK        -0.5577 
     35 CA        -74.0933   23.7357  -76.9941 C.3       7 UNK         0.0284 
     36 CB        -75.3503   22.9027  -77.2971 C.3       7 UNK        -0.1958 
     37 N         -74.1316   25.0022  -77.7332 N.am      7 UNK        -0.4454 
     38 C         -73.0617   25.7830  -77.9491 C.2       7 UNK         0.5089 
     39 O         -71.9218   25.4978  -77.5844 O.2       7 UNK        -0.5125 
     40 CA        -73.3005   27.1198  -78.6749 C.3       6 UNK         0.0408 
     41 CB        -73.1566   26.9375  -80.1939 C.3       6 UNK        -0.1791 
     42 N         -74.6054   27.7158  -78.3779 N.am      6 UNK        -0.4762 
     43 C         -74.9631   28.2145  -77.1847 C.2       6 UNK         0.5007 
     44 O         -74.2142   28.2470  -76.2076 O.2       6 UNK        -0.5032 
     45 CA        -76.4309   28.6700  -77.0429 C.3       5 UNK         0.0783 
     46 C46       -76.6614   30.1201  -77.5444 C.3       11 UNK        -0.0857 
     47 S47       -76.0076   31.4240  -76.4482 S.3       11 UNK        -0.2512 
     48 C48       -77.4679   31.8542  -75.4418 C.3       11 UNK         0.0225 
     49 N         -77.3531   27.7469  -77.7165 N.am      5 UNK        -0.4615 
     50 C         -77.5161   26.4541  -77.4146 C.2       4 UNK         0.5053 
     51 O         -76.9455   25.8844  -76.4803 O.2       4 UNK        -0.5105 
     52 CA        -78.4006   25.6524  -78.3739 C.3       4 UNK         0.0263 
     53 CB        -77.6317   25.3357  -79.6737 C.3       4 UNK        -0.1981 
     54 N         -78.8179   24.4174  -77.7194 N.am      4 UNK        -0.4224 
     55 C         -79.8070   23.6114  -78.1257 C.2       3 UNK         0.4895 
     56 O         -80.4887   23.8166  -79.1309 O.2       3 UNK        -0.5091 
     57 CA        -80.0922   22.3573  -77.2762 C.3       3 UNK         0.0250 
     58 CB        -79.3709   21.1375  -77.8736 C.3       3 UNK        -0.1996 
     59 N         -79.7231   22.4868  -75.8622 N.am      3 UNK        -0.4254 
     60 C         -80.2826   23.3478  -75.0017 C.2       2 UNK         0.5004 
     61 O         -81.1885   24.1302  -75.3041 O.2       2 UNK        -0.5226 
     62 CA        -79.7138   23.3524  -73.5758 C.3       2 UNK         0.0269 
     63 CB        -78.1948   23.6219  -73.5796 C.3       2 UNK        -0.1926 
     64 N         -80.4053   24.3885  -72.8131 N.am      2 UNK        -0.4687 
     65 C         -80.5489   24.4389  -71.4869 C.2       1 UNK         0.5165 
     66 O         -80.0876   23.5850  -70.7257 O.2       1 UNK        -0.5079 
     67 H67       -79.4320   27.0577  -68.5920 H         1 UNK         0.0900 
     68 H68       -79.0144   25.7029  -67.5516 H         1 UNK         0.0900 
     69 H69       -78.9867   25.4905  -69.2894 H         1 UNK         0.0900 
     70 H70       -82.6942   25.1792  -69.4055 H         1 UNK         0.2959 
     71 H71       -82.3089   25.6162  -71.4662 H         1 UNK         0.1079 
     72 H72       -81.0733   27.7746  -70.5507 H         1 UNK         0.0837 
     73 H73       -79.6156   26.9833  -71.0664 H         1 UNK         0.0837 
     74 H74       -78.8802   26.6341  -73.3527 H         1 UNK         0.0685 
     75 H75       -79.5536   27.3546  -74.7839 H         1 UNK         0.0685 
     76 H76       -79.0872   29.6493  -75.3721 H         1 UNK         0.1434 
     77 H77       -76.2400   31.8334  -73.0264 H         1 UNK         0.1329 
     78 H78       -77.7689   28.1028  -71.5931 H         1 UNK         0.1335 
     79 H79       -76.5130   29.5634  -70.1011 H         1 UNK         0.0680 
     80 H80       -75.9827   31.1452  -70.6026 H         1 UNK         0.0680 
     81 H81       -74.0114   31.7373  -71.7466 H         1 UNK         0.1032 
     82 H82       -72.5191   30.8754  -71.5497 H         1 UNK         0.1032 
     83 H83       -74.3656   30.6841  -73.9735 H         1 UNK         0.0461 
     84 H84       -71.5205   32.6446  -75.6844 H         1 UNK         0.3453 
     85 H85       -71.7732   30.9157  -75.6743 H         1 UNK         0.3453 
     86 H86       -73.3764   28.9004  -74.6744 H         1 UNK         0.2984 
     87 H87       -71.0551   27.7327  -75.4027 H         1 UNK         0.0554 
     88 H88       -69.1437   27.4397  -73.8958 H         1 UNK         0.0847 
     89 H89       -69.8615   25.8685  -74.2132 H         1 UNK         0.0847 
     90 H90       -70.1459   26.6793  -72.6728 H         1 UNK         0.0847 
     91 H91       -72.9305   26.5902  -75.2461 H         1 UNK         0.3141 
     92 H92       -74.5522   24.6072  -72.9070 H         1 UNK         0.0743 
     93 H93       -76.5592   26.0341  -73.4276 H         1 UNK         0.0784 
     94 H94       -75.5363   26.7711  -72.2129 H         1 UNK         0.0784 
     95 H95       -75.5000   27.3681  -73.8643 H         1 UNK         0.0784 
     96 H96       -75.2722   25.4900  -75.5386 H         1 UNK         0.3213 
     97 H97       -73.2253   23.1687  -77.3388 H         1 UNK         0.0855 
     98 H98       -76.2570   23.3829  -76.9336 H         1 UNK         0.0814 
     99 H99       -75.2899   21.9260  -76.8152 H         1 UNK         0.0814 
    100 H100      -75.4653   22.7272  -78.3667 H         1 UNK         0.0814 
    101 H101      -75.0363   25.3336  -78.0303 H         1 UNK         0.3105 
    102 H102      -72.5292   27.8179  -78.3420 H         1 UNK         0.0547 
    103 H103      -73.2399   27.8897  -80.7180 H         1 UNK         0.0837 
    104 H104      -72.1817   26.5171  -80.4449 H         1 UNK         0.0837 
    105 H105      -73.9143   26.2639  -80.5962 H         1 UNK         0.0837 
    106 H106      -75.2825   27.7284  -79.1266 H         1 UNK         0.3020 
    107 H107      -76.6546   28.6215  -75.9769 H         1 UNK         0.1245 
    108 H108      -77.7292   30.3036  -77.6727 H         1 UNK         0.0781 
    109 H109      -76.2269   30.2588  -78.5362 H         1 UNK         0.0781 
    110 H110      -78.3612   31.9128  -76.0653 H         1 UNK         0.0836 
    111 H111      -77.3253   32.8513  -75.0224 H         1 UNK         0.0836 
    112 H112      -77.8596   28.1240  -78.5047 H         1 UNK         0.3022 
    113 H113      -79.2881   26.2463  -78.6025 H         1 UNK         0.0747 
    114 H114      -76.7626   24.7049  -79.4862 H         1 UNK         0.0793 
    115 H115      -78.2640   24.8177  -80.3948 H         1 UNK         0.0793 
    116 H116      -77.2794   26.2450  -80.1619 H         1 UNK         0.0793 
    117 H117      -78.3270   24.2164  -76.8581 H         1 UNK         0.3047 
    118 H118      -81.1681   22.1751  -77.3215 H         1 UNK         0.0822 
    119 H119      -79.6466   20.9947  -78.9196 H         1 UNK         0.0807 
    120 H120      -79.6334   20.2211  -77.3447 H         1 UNK         0.0807 
    121 H121      -78.2865   21.2504  -77.8360 H         1 UNK         0.0807 
    122 H122      -78.9921   21.8735  -75.5310 H         1 UNK         0.2946 
    123 H123      -79.9181   22.3795  -73.1227 H         1 UNK         0.1144 
    124 H124      -77.8149   23.8275  -72.5787 H         1 UNK         0.0793 
    125 H125      -77.9460   24.4700  -74.2169 H         1 UNK         0.0793 
    126 H126      -77.6406   22.7625  -73.9577 H         1 UNK         0.0793 
    127 H127      -80.8717   25.0788  -73.3916 H         1 UNK         0.2896 
@<TRIPOS>BOND
     1    1    2 1    
     2    1   67 1    
     3    1   68 1    
     4    1   69 1    
     5    2    3 2    
     6    2    4 am   BACKBONE|DICT|INTERRES
     7    4    5 1    
     8    4   70 1    
     9    5    6 1    
    10    5   65 1    
    11    5   71 1    
    12    6    7 1    
    13    6   72 1    
    14    6   73 1    
    15    7    8 1    
    16    8    9 1    
    17    8   74 1    
    18    8   75 1    
    19    9   10 ar   
    20    9   14 ar   
    21   10   11 ar   
    22   10   76 1    
    23   11   12 ar   
    24   11   48 1    
    25   12   13 ar   
    26   12   77 1    
    27   13   14 ar   
    28   13   15 1    
    29   14   78 1    
    30   15   16 1    
    31   15   79 1    
    32   15   80 1    
    33   16   17 1    
    34   17   18 1    
    35   17   81 1    
    36   17   82 1    
    37   18   19 1    
    38   18   22 1    
    39   18   83 1    
    40   19   20 am   BACKBONE|DICT|INTERRES
    41   19   21 2    
    42   20   84 1    
    43   20   85 1    
    44   22   23 am   BACKBONE|DICT|INTERRES
    45   22   86 1    
    46   23   24 2    
    47   23   25 1    
    48   25   26 1    
    49   25   27 1    
    50   25   87 1    
    51   26   88 1    
    52   26   89 1    
    53   26   90 1    
    54   27   28 am   BACKBONE|DICT|INTERRES
    55   27   91 1    
    56   28   29 2    
    57   28   30 1    
    58   30   31 1    
    59   30   32 1    
    60   30   92 1    
    61   31   93 1    
    62   31   94 1    
    63   31   95 1    
    64   32   33 am   BACKBONE|DICT|INTERRES
    65   32   96 1    
    66   33   34 2    
    67   33   35 1    
    68   35   36 1    
    69   35   37 1    
    70   35   97 1    
    71   36   98 1    
    72   36   99 1    
    73   36  100 1    
    74   37   38 am   BACKBONE|DICT|INTERRES
    75   37  101 1    
    76   38   39 2    
    77   38   40 1    
    78   40   41 1    
    79   40   42 1    
    80   40  102 1    
    81   41  103 1    
    82   41  104 1    
    83   41  105 1    
    84   42   43 am   BACKBONE|DICT|INTERRES
    85   42  106 1    
    86   43   44 2    
    87   43   45 1    
    88   45   46 1    
    89   45   49 1    
    90   45  107 1    
    91   46   47 1    
    92   46  108 1    
    93   46  109 1    
    94   47   48 1    
    95   48  110 1    
    96   48  111 1    
    97   49   50 am   BACKBONE|DICT|INTERRES
    98   49  112 1    
    99   50   51 2    
   100   50   52 1    
   101   52   53 1    
   102   52   54 1    
   103   52  113 1    
   104   53  114 1    
   105   53  115 1    
   106   53  116 1    
   107   54   55 am   BACKBONE|DICT|INTERRES
   108   54  117 1    
   109   55   56 2    
   110   55   57 1    
   111   57   58 1    
   112   57   59 1    
   113   57  118 1    
   114   58  119 1    
   115   58  120 1    
   116   58  121 1    
   117   59   60 am   BACKBONE|DICT|INTERRES
   118   59  122 1    
   119   60   61 2    
   120   60   62 1    
   121   62   63 1    
   122   62   64 1    
   123   62  123 1    
   124   63  124 1    
   125   63  125 1    
   126   63  126 1    
   127   64   65 am   BACKBONE|DICT|INTERRES
   128   64  127 1    
   129   65   66 2    
@<TRIPOS>SUBSTRUCTURE
     1 UNK         1 GROUP             0       ****    0 ROOT    
