@<TRIPOS>MOLECULE
3R135
127   129    1
SMALL
USER_CHARGES


@<TRIPOS>ATOM
      1 CA        -77.3795   31.2629  -76.0374 C.3       0 UNK        -0.1998 
      2 C         -77.5171   29.9284  -75.3214 C.2       0 UNK         0.4909 
      3 O         -76.5073   29.3137  -74.9854 O.2       0 UNK        -0.5240 
      4 N         -78.7566   29.4766  -75.0880 N.am      1 UNK        -0.4739 
      5 CA        -79.0691   28.2234  -74.3879 C.3       1 UNK         0.0864 
      6 C6        -80.5044   28.2737  -73.7964 C.3       11 UNK        -0.0881 
      7 S7        -80.8966   26.9577  -72.5892 S.3       11 UNK        -0.2682 
      8 C8        -80.3479   27.6791  -71.0062 C.3       11 UNK         0.0289 
      9 C9        -78.8338   27.8191  -70.9498 C.ar      11 UNK        -0.0687 
     10 C10       -78.0273   26.6867  -70.7973 C.ar      11 UNK        -0.0823 
     11 C11       -76.6332   26.7967  -70.8193 C.ar      11 UNK        -0.0830 
     12 C12       -76.0507   28.0571  -70.9874 C.ar      11 UNK        -0.1021 
     13 C13       -76.8460   29.1964  -71.1500 C.ar      11 UNK        -0.0753 
     14 C14       -78.2375   29.0739  -71.1050 C.ar      11 UNK        -0.0933 
     15 C15       -76.2141   30.5413  -71.4780 C.3       11 UNK         0.0166 
     16 S16       -74.9671   31.0710  -70.2623 S.3       11 UNK        -0.2615 
     17 C17       -74.2958   32.5435  -71.1183 C.3       11 UNK        -0.0865 
     18 CA        -72.8532   32.3688  -71.6823 C.3       10 UNK         0.0862 
     19 C         -71.7653   32.3723  -70.5751 C.2       10 UNK         0.5551 
     20 N         -71.5937   33.4861  -69.8761 N.am      10 UNK        -0.7319 
     21 O         -71.0723   31.3813  -70.3454 O.2       10 UNK        -0.5018 
     22 N         -72.7006   31.1975  -72.5532 N.am      10 UNK        -0.4509 
     23 C         -73.2685   31.0124  -73.7476 C.2       10 UNK         0.4899 
     24 O         -74.0028   31.8413  -74.2910 O.2       10 UNK        -0.4839 
     25 CA        -72.9503   29.6768  -74.4422 C.3       9 UNK         0.0222 
     26 CB        -73.2133   28.4700  -73.5221 C.3       9 UNK        -0.1966 
     27 N         -73.7822   29.5101  -75.6297 N.am      9 UNK        -0.4218 
     28 C         -73.3524   29.4463  -76.8914 C.2       9 UNK         0.5020 
     29 O         -72.1715   29.5495  -77.2332 O.2       9 UNK        -0.5274 
     30 CA        -74.4278   29.1866  -77.9608 C.3       8 UNK         0.0270 
     31 CB        -74.4022   30.2601  -79.0619 C.3       8 UNK        -0.1976 
     32 N         -74.2485   27.8620  -78.5575 N.am      8 UNK        -0.4313 
     33 C         -74.4599   26.7158  -77.8996 C.2       8 UNK         0.5041 
     34 O         -74.9001   26.6552  -76.7481 O.2       8 UNK        -0.5577 
     35 CA        -74.1284   25.4160  -78.6410 C.3       7 UNK         0.0284 
     36 CB        -72.6054   25.1986  -78.7285 C.3       7 UNK        -0.1958 
     37 N         -74.7505   24.3345  -77.8884 N.am      7 UNK        -0.4454 
     38 C         -74.9902   23.0864  -78.2943 C.2       7 UNK         0.5089 
     39 O         -74.6751   22.6648  -79.4081 O.2       7 UNK        -0.5125 
     40 CA        -75.7334   22.1516  -77.3168 C.3       6 UNK         0.0408 
     41 CB        -74.9808   20.8201  -77.1137 C.3       6 UNK        -0.1791 
     42 N         -76.1059   22.7615  -76.0281 N.am      6 UNK        -0.4762 
     43 C         -75.3087   23.1184  -75.0056 C.2       6 UNK         0.5007 
     44 O         -74.0835   23.0038  -75.0282 O.2       6 UNK        -0.5032 
     45 CA        -75.9837   23.7083  -73.7453 C.3       5 UNK         0.0783 
     46 C46       -75.5585   25.1825  -73.4768 C.3       11 UNK        -0.0857 
     47 S47       -74.5193   25.3526  -71.9887 S.3       11 UNK        -0.2512 
     48 C48       -75.7661   25.5499  -70.6670 C.3       11 UNK         0.0225 
     49 N         -77.4448   23.5833  -73.7798 N.am      5 UNK        -0.4615 
     50 C         -78.1316   22.4854  -73.4409 C.2       4 UNK         0.5053 
     51 O         -77.6012   21.4324  -73.0877 O.2       4 UNK        -0.5105 
     52 CA        -79.6624   22.5696  -73.5036 C.3       4 UNK         0.0263 
     53 CB        -80.2076   23.2253  -72.2249 C.3       4 UNK        -0.1981 
     54 N         -80.1246   23.3256  -74.6728 N.am      4 UNK        -0.4224 
     55 C         -80.8805   22.8158  -75.6574 C.2       3 UNK         0.4895 
     56 O         -81.2534   21.6425  -75.6969 O.2       3 UNK        -0.5091 
     57 CA        -81.3212   23.7628  -76.7920 C.3       3 UNK         0.0250 
     58 CB        -82.7302   24.3097  -76.5098 C.3       3 UNK        -0.1996 
     59 N         -80.4120   24.8871  -77.0178 N.am      3 UNK        -0.4254 
     60 C         -79.1652   24.7814  -77.4960 C.2       2 UNK         0.5004 
     61 O         -78.6681   23.7231  -77.8782 O.2       2 UNK        -0.5226 
     62 CA        -78.3065   26.0597  -77.5124 C.3       2 UNK         0.0269 
     63 CB        -78.2196   26.6462  -78.9299 C.3       2 UNK        -0.1926 
     64 N         -78.7210   27.1123  -76.5736 N.am      2 UNK        -0.4687 
     65 C         -78.8025   26.9656  -75.2421 C.2       1 UNK         0.5165 
     66 O         -78.6675   25.8764  -74.6835 O.2       1 UNK        -0.5079 
     67 H67       -76.9948   31.1135  -77.0455 H         1 UNK         0.0900 
     68 H68       -78.3327   31.7863  -76.1094 H         1 UNK         0.0900 
     69 H69       -76.6820   31.9045  -75.4988 H         1 UNK         0.0900 
     70 H70       -79.5499   30.0244  -75.3909 H         1 UNK         0.2959 
     71 H71       -78.3604   28.1401  -73.5657 H         1 UNK         0.1079 
     72 H72       -81.2440   28.2292  -74.5978 H         1 UNK         0.0837 
     73 H73       -80.6663   29.2326  -73.3013 H         1 UNK         0.0837 
     74 H74       -80.6800   27.0340  -70.1916 H         1 UNK         0.0685 
     75 H75       -80.8379   28.6420  -70.8538 H         1 UNK         0.0685 
     76 H76       -78.4908   25.7165  -70.6847 H         1 UNK         0.1434 
     77 H77       -74.9740   28.1479  -71.0197 H         1 UNK         0.1329 
     78 H78       -78.8591   29.9467  -71.2503 H         1 UNK         0.1335 
     79 H79       -76.9764   31.3182  -71.5552 H         1 UNK         0.0680 
     80 H80       -75.7556   30.4639  -72.4632 H         1 UNK         0.0680 
     81 H81       -74.9661   32.8230  -71.9322 H         1 UNK         0.1032 
     82 H82       -74.3388   33.3861  -70.4265 H         1 UNK         0.1032 
     83 H83       -72.6333   33.2382  -72.3049 H         1 UNK         0.0461 
     84 H84       -72.1436   34.3107  -70.0600 H         1 UNK         0.3453 
     85 H85       -70.8910   33.5056  -69.1534 H         1 UNK         0.3453 
     86 H86       -72.0856   30.4905  -72.1715 H         1 UNK         0.2984 
     87 H87       -71.8923   29.6905  -74.7104 H         1 UNK         0.0554 
     88 H88       -72.6122   28.5007  -72.6132 H         1 UNK         0.0847 
     89 H89       -72.9762   27.5336  -74.0279 H         1 UNK         0.0847 
     90 H90       -74.2618   28.4208  -73.2279 H         1 UNK         0.0847 
     91 H91       -74.7830   29.4259  -75.4440 H         1 UNK         0.3141 
     92 H92       -75.4129   29.2121  -77.4915 H         1 UNK         0.0743 
     93 H93       -74.5423   31.2546  -78.6362 H         1 UNK         0.0784 
     94 H94       -73.4535   30.2672  -79.6002 H         1 UNK         0.0784 
     95 H95       -75.2002   30.1033  -79.7879 H         1 UNK         0.0784 
     96 H96       -73.8515   27.8321  -79.4856 H         1 UNK         0.3213 
     97 H97       -74.5650   25.4555  -79.6411 H         1 UNK         0.0855 
     98 H98       -72.1510   25.1522  -77.7378 H         1 UNK         0.0814 
     99 H99       -72.1205   26.0097  -79.2728 H         1 UNK         0.0814 
    100 H100      -72.3628   24.2728  -79.2502 H         1 UNK         0.0814 
    101 H101      -75.0521   24.6225  -76.9645 H         1 UNK         0.3105 
    102 H102      -76.6783   21.9101  -77.8049 H         1 UNK         0.0547 
    103 H103      -75.5237   20.1545  -76.4429 H         1 UNK         0.0837 
    104 H104      -73.9829   20.9734  -76.7025 H         1 UNK         0.0837 
    105 H105      -74.8588   20.2936  -78.0610 H         1 UNK         0.0837 
    106 H106      -77.0970   22.9257  -75.9132 H         1 UNK         0.3020 
    107 H107      -75.6275   23.0861  -72.9208 H         1 UNK         0.1245 
    108 H108      -76.4207   25.8401  -73.3664 H         1 UNK         0.0781 
    109 H109      -75.0004   25.6087  -74.3124 H         1 UNK         0.0781 
    110 H110      -75.2515   25.5997  -69.7066 H         1 UNK         0.0836 
    111 H111      -76.3830   24.6503  -70.6375 H         1 UNK         0.0836 
    112 H112      -77.9488   24.4252  -74.0568 H         1 UNK         0.3022 
    113 H113      -80.0381   21.5449  -73.5375 H         1 UNK         0.0747 
    114 H114      -81.2969   23.2669  -72.2338 H         1 UNK         0.0793 
    115 H115      -79.9101   22.6628  -71.3389 H         1 UNK         0.0793 
    116 H116      -79.8356   24.2426  -72.1056 H         1 UNK         0.0793 
    117 H117      -79.8363   24.2977  -74.7293 H         1 UNK         0.3047 
    118 H118      -81.3595   23.1739  -77.7110 H         1 UNK         0.0822 
    119 H119      -83.0960   24.9144  -77.3400 H         1 UNK         0.0807 
    120 H120      -82.7517   24.9249  -75.6090 H         1 UNK         0.0807 
    121 H121      -83.4430   23.4964  -76.3657 H         1 UNK         0.0807 
    122 H122      -80.7318   25.7999  -76.7292 H         1 UNK         0.2946 
    123 H123      -77.3052   25.7487  -77.2118 H         1 UNK         0.1144 
    124 H124      -77.5120   27.4746  -78.9734 H         1 UNK         0.0793 
    125 H125      -79.1880   27.0096  -79.2759 H         1 UNK         0.0793 
    126 H126      -77.8778   25.8946  -79.6432 H         1 UNK         0.0793 
    127 H127      -78.8457   28.0390  -76.9539 H         1 UNK         0.2896 
@<TRIPOS>BOND
     1    1    2 1    
     2    1   67 1    
     3    1   68 1    
     4    1   69 1    
     5    2    3 2    
     6    2    4 am   BACKBONE|DICT|INTERRES
     7    4    5 1    
     8    4   70 1    
     9    5    6 1    
    10    5   65 1    
    11    5   71 1    
    12    6    7 1    
    13    6   72 1    
    14    6   73 1    
    15    7    8 1    
    16    8    9 1    
    17    8   74 1    
    18    8   75 1    
    19    9   10 ar   
    20    9   14 ar   
    21   10   11 ar   
    22   10   76 1    
    23   11   12 ar   
    24   11   48 1    
    25   12   13 ar   
    26   12   77 1    
    27   13   14 ar   
    28   13   15 1    
    29   14   78 1    
    30   15   16 1    
    31   15   79 1    
    32   15   80 1    
    33   16   17 1    
    34   17   18 1    
    35   17   81 1    
    36   17   82 1    
    37   18   19 1    
    38   18   22 1    
    39   18   83 1    
    40   19   20 am   BACKBONE|DICT|INTERRES
    41   19   21 2    
    42   20   84 1    
    43   20   85 1    
    44   22   23 am   BACKBONE|DICT|INTERRES
    45   22   86 1    
    46   23   24 2    
    47   23   25 1    
    48   25   26 1    
    49   25   27 1    
    50   25   87 1    
    51   26   88 1    
    52   26   89 1    
    53   26   90 1    
    54   27   28 am   BACKBONE|DICT|INTERRES
    55   27   91 1    
    56   28   29 2    
    57   28   30 1    
    58   30   31 1    
    59   30   32 1    
    60   30   92 1    
    61   31   93 1    
    62   31   94 1    
    63   31   95 1    
    64   32   33 am   BACKBONE|DICT|INTERRES
    65   32   96 1    
    66   33   34 2    
    67   33   35 1    
    68   35   36 1    
    69   35   37 1    
    70   35   97 1    
    71   36   98 1    
    72   36   99 1    
    73   36  100 1    
    74   37   38 am   BACKBONE|DICT|INTERRES
    75   37  101 1    
    76   38   39 2    
    77   38   40 1    
    78   40   41 1    
    79   40   42 1    
    80   40  102 1    
    81   41  103 1    
    82   41  104 1    
    83   41  105 1    
    84   42   43 am   BACKBONE|DICT|INTERRES
    85   42  106 1    
    86   43   44 2    
    87   43   45 1    
    88   45   46 1    
    89   45   49 1    
    90   45  107 1    
    91   46   47 1    
    92   46  108 1    
    93   46  109 1    
    94   47   48 1    
    95   48  110 1    
    96   48  111 1    
    97   49   50 am   BACKBONE|DICT|INTERRES
    98   49  112 1    
    99   50   51 2    
   100   50   52 1    
   101   52   53 1    
   102   52   54 1    
   103   52  113 1    
   104   53  114 1    
   105   53  115 1    
   106   53  116 1    
   107   54   55 am   BACKBONE|DICT|INTERRES
   108   54  117 1    
   109   55   56 2    
   110   55   57 1    
   111   57   58 1    
   112   57   59 1    
   113   57  118 1    
   114   58  119 1    
   115   58  120 1    
   116   58  121 1    
   117   59   60 am   BACKBONE|DICT|INTERRES
   118   59  122 1    
   119   60   61 2    
   120   60   62 1    
   121   62   63 1    
   122   62   64 1    
   123   62  123 1    
   124   63  124 1    
   125   63  125 1    
   126   63  126 1    
   127   64   65 am   BACKBONE|DICT|INTERRES
   128   64  127 1    
   129   65   66 2    
@<TRIPOS>SUBSTRUCTURE
     1 UNK         1 GROUP             0       ****    0 ROOT    
