@<TRIPOS>MOLECULE
3R135
127   129    1
SMALL
USER_CHARGES


@<TRIPOS>ATOM
      1 CA        -83.8472   30.3422  -77.4711 C.3       0 UNK        -0.1998 
      2 C         -82.9245   29.2182  -77.0239 C.2       0 UNK         0.4909 
      3 O         -82.9746   28.1233  -77.5860 O.2       0 UNK        -0.5240 
      4 N         -82.0755   29.4827  -76.0236 N.am      1 UNK        -0.4739 
      5 CA        -81.1695   28.5079  -75.4092 C.3       1 UNK         0.0864 
      6 C6        -80.0328   29.1945  -74.6051 C.3       11 UNK        -0.0881 
      7 S7        -80.5632   30.5452  -73.4883 S.3       11 UNK        -0.2682 
      8 C8        -80.6283   29.7317  -71.8582 C.3       11 UNK         0.0289 
      9 C9        -79.2914   29.1328  -71.4417 C.ar      11 UNK        -0.0687 
     10 C10       -79.1672   27.7503  -71.2812 C.ar      11 UNK        -0.0823 
     11 C11       -77.9470   27.1815  -70.9070 C.ar      11 UNK        -0.0830 
     12 C12       -76.8429   28.0098  -70.6896 C.ar      11 UNK        -0.1021 
     13 C13       -76.9516   29.3934  -70.8539 C.ar      11 UNK        -0.0753 
     14 C14       -78.1805   29.9522  -71.2186 C.ar      11 UNK        -0.0933 
     15 C15       -75.7310   30.2758  -70.6612 C.3       11 UNK         0.0166 
     16 S16       -74.9679   30.6518  -72.2677 S.3       11 UNK        -0.2615 
     17 C17       -73.2155   30.8738  -71.8011 C.3       11 UNK        -0.0865 
     18 CA        -72.3116   29.6828  -72.2297 C.3       10 UNK         0.0862 
     19 C         -72.4685   28.4359  -71.3160 C.2       10 UNK         0.5551 
     20 N         -72.7574   27.2507  -71.8373 N.am      10 UNK        -0.7319 
     21 O         -72.2901   28.5402  -70.1051 O.2       10 UNK        -0.5018 
     22 N         -72.3973   29.4053  -73.6730 N.am      10 UNK        -0.4509 
     23 C         -71.7782   30.1269  -74.6137 C.2       10 UNK         0.4899 
     24 O         -71.0170   31.0650  -74.3675 O.2       10 UNK        -0.4839 
     25 CA        -72.0781   29.7430  -76.0732 C.3       9 UNK         0.0222 
     26 CB        -71.2394   30.5358  -77.0986 C.3       9 UNK        -0.1966 
     27 N         -71.9733   28.3020  -76.3158 N.am      9 UNK        -0.4218 
     28 C         -70.8895   27.5187  -76.1966 C.2       9 UNK         0.5020 
     29 O         -69.7836   27.9221  -75.8338 O.2       9 UNK        -0.5274 
     30 CA        -71.0560   26.0233  -76.5396 C.3       8 UNK         0.0270 
     31 CB        -70.9953   25.1713  -75.2611 C.3       8 UNK        -0.1976 
     32 N         -72.2972   25.7163  -77.2571 N.am      8 UNK        -0.4313 
     33 C         -72.5727   26.0722  -78.5197 C.2       8 UNK         0.5041 
     34 O         -71.7614   26.6072  -79.2757 O.2       8 UNK        -0.5577 
     35 CA        -74.0175   25.8445  -78.9962 C.3       7 UNK         0.0284 
     36 CB        -74.1985   24.4231  -79.5537 C.3       7 UNK        -0.1958 
     37 N         -74.9975   26.0948  -77.9329 N.am      7 UNK        -0.4454 
     38 C         -75.2766   27.3043  -77.4238 C.2       7 UNK         0.5089 
     39 O         -74.7658   28.3492  -77.8233 O.2       7 UNK        -0.5125 
     40 CA        -76.2611   27.3517  -76.2450 C.3       6 UNK         0.0408 
     41 CB        -77.7083   27.3158  -76.7559 C.3       6 UNK        -0.1791 
     42 N         -76.0517   26.2476  -75.3093 N.am      6 UNK        -0.4762 
     43 C         -75.0089   26.1429  -74.4706 C.2       6 UNK         0.5007 
     44 O         -74.1259   26.9986  -74.3629 O.2       6 UNK        -0.5032 
     45 CA        -74.8958   24.8338  -73.6538 C.3       5 UNK         0.0783 
     46 C46       -75.5690   24.9613  -72.2641 C.3       11 UNK        -0.0857 
     47 S47       -77.3967   24.8543  -72.2988 S.3       11 UNK        -0.2512 
     48 C48       -77.8319   25.6748  -70.7344 C.3       11 UNK         0.0225 
     49 N         -75.3863   23.6578  -74.3772 N.am      5 UNK        -0.4615 
     50 C         -74.9693   23.2403  -75.5774 C.2       4 UNK         0.5053 
     51 O         -73.9918   23.7144  -76.1538 O.2       4 UNK        -0.5105 
     52 CA        -75.8138   22.1648  -76.2890 C.3       4 UNK         0.0263 
     53 CB        -75.0786   20.8156  -76.2728 C.3       4 UNK        -0.1981 
     54 N         -77.1739   21.9802  -75.7588 N.am      4 UNK        -0.4224 
     55 C         -78.1253   22.9215  -75.6555 C.2       3 UNK         0.4895 
     56 O         -77.9584   24.0992  -75.9848 O.2       3 UNK        -0.5091 
     57 CA        -79.4681   22.4848  -75.0479 C.3       3 UNK         0.0250 
     58 CB        -79.3090   21.4654  -73.8977 C.3       3 UNK        -0.1996 
     59 N         -80.1815   23.6648  -74.5621 N.am      3 UNK        -0.4254 
     60 C         -81.5094   23.7692  -74.4302 C.2       2 UNK         0.5004 
     61 O         -82.3041   22.8803  -74.7381 O.2       2 UNK        -0.5226 
     62 CA        -82.0408   25.0883  -73.8589 C.3       2 UNK         0.0269 
     63 CB        -81.8466   25.1324  -72.3312 C.3       2 UNK        -0.1926 
     64 N         -81.4047   26.2363  -74.5116 N.am      2 UNK        -0.4687 
     65 C         -81.9362   27.4648  -74.5668 C.2       1 UNK         0.5165 
     66 O         -82.9778   27.7846  -73.9872 O.2       1 UNK        -0.5079 
     67 H67       -83.6848   31.2548  -76.8978 H         1 UNK         0.0900 
     68 H68       -84.8879   30.0445  -77.3469 H         1 UNK         0.0900 
     69 H69       -83.6802   30.5688  -78.5238 H         1 UNK         0.0900 
     70 H70       -82.0949   30.3865  -75.5717 H         1 UNK         0.2959 
     71 H71       -80.7022   27.9611  -76.2311 H         1 UNK         0.1079 
     72 H72       -79.3335   29.6435  -75.3121 H         1 UNK         0.0837 
     73 H73       -79.4392   28.4605  -74.0585 H         1 UNK         0.0837 
     74 H74       -80.9347   30.4662  -71.1122 H         1 UNK         0.0685 
     75 H75       -81.4098   28.9705  -71.8743 H         1 UNK         0.0685 
     76 H76       -80.0232   27.1156  -71.4517 H         1 UNK         0.1434 
     77 H77       -75.8934   27.5809  -70.4013 H         1 UNK         0.1329 
     78 H78       -78.2668   31.0219  -71.3530 H         1 UNK         0.1335 
     79 H79       -76.0078   31.2058  -70.1624 H         1 UNK         0.0680 
     80 H80       -75.0116   29.7759  -70.0108 H         1 UNK         0.0680 
     81 H81       -73.1270   31.0695  -70.7309 H         1 UNK         0.1032 
     82 H82       -72.8616   31.7854  -72.2846 H         1 UNK         0.1032 
     83 H83       -71.2822   29.9914  -72.0365 H         1 UNK         0.0461 
     84 H84       -72.8130   26.4573  -71.2205 H         1 UNK         0.3453 
     85 H85       -72.9836   27.1523  -72.8183 H         1 UNK         0.3453 
     86 H86       -73.0227   28.6565  -73.9509 H         1 UNK         0.2984 
     87 H87       -73.1247   30.0006  -76.2414 H         1 UNK         0.0554 
     88 H88       -71.5016   30.2612  -78.1204 H         1 UNK         0.0847 
     89 H89       -70.1703   30.3649  -76.9688 H         1 UNK         0.0847 
     90 H90       -71.4112   31.6081  -76.9977 H         1 UNK         0.0847 
     91 H91       -72.8336   27.8584  -76.6087 H         1 UNK         0.3141 
     92 H92       -70.2187   25.7407  -77.1809 H         1 UNK         0.0743 
     93 H93       -71.7879   25.4387  -74.5629 H         1 UNK         0.0784 
     94 H94       -71.0884   24.1083  -75.4850 H         1 UNK         0.0784 
     95 H95       -70.0456   25.3119  -74.7430 H         1 UNK         0.0784 
     96 H96       -72.9974   25.1778  -76.7503 H         1 UNK         0.3213 
     97 H97       -74.2133   26.5523  -79.8049 H         1 UNK         0.0855 
     98 H98       -73.9952   23.6590  -78.8034 H         1 UNK         0.0814 
     99 H99       -73.5170   24.2458  -80.3868 H         1 UNK         0.0814 
    100 H100      -75.2110   24.2680  -79.9266 H         1 UNK         0.0814 
    101 H101      -75.4395   25.2882  -77.5167 H         1 UNK         0.3105 
    102 H102      -76.1093   28.2889  -75.7047 H         1 UNK         0.0547 
    103 H103      -77.9434   28.2147  -77.3271 H         1 UNK         0.0837 
    104 H104      -77.8907   26.4581  -77.4049 H         1 UNK         0.0837 
    105 H105      -78.4106   27.2542  -75.9278 H         1 UNK         0.0837 
    106 H106      -76.7186   25.4817  -75.3549 H         1 UNK         0.3020 
    107 H107      -73.8288   24.6721  -73.4893 H         1 UNK         0.1245 
    108 H108      -75.2624   25.8874  -71.7786 H         1 UNK         0.0781 
    109 H109      -75.2092   24.1607  -71.6161 H         1 UNK         0.0781 
    110 H110      -77.0972   25.4293  -69.9660 H         1 UNK         0.0836 
    111 H111      -78.7817   25.2714  -70.3804 H         1 UNK         0.0836 
    112 H112      -76.2059   23.2216  -73.9818 H         1 UNK         0.3022 
    113 H113      -75.9159   22.4843  -77.3279 H         1 UNK         0.0747 
    114 H114      -75.6032   20.0689  -76.8693 H         1 UNK         0.0793 
    115 H115      -74.0751   20.9117  -76.6904 H         1 UNK         0.0793 
    116 H116      -74.9735   20.4255  -75.2596 H         1 UNK         0.0793 
    117 H117      -77.4025   21.0460  -75.4507 H         1 UNK         0.3047 
    118 H118      -80.0454   22.0277  -75.8544 H         1 UNK         0.0822 
    119 H119      -78.8839   20.5237  -74.2457 H         1 UNK         0.0807 
    120 H120      -80.2720   21.2219  -73.4485 H         1 UNK         0.0807 
    121 H121      -78.6655   21.8505  -73.1053 H         1 UNK         0.0807 
    122 H122      -79.5848   24.4404  -74.3084 H         1 UNK         0.2946 
    123 H123      -83.1123   25.1215  -74.0718 H         1 UNK         0.1144 
    124 H124      -82.3709   24.3043  -71.8523 H         1 UNK         0.0793 
    125 H125      -82.2406   26.0526  -71.9001 H         1 UNK         0.0793 
    126 H126      -80.7952   25.0480  -72.0565 H         1 UNK         0.0793 
    127 H127      -80.5809   26.0328  -75.0599 H         1 UNK         0.2896 
@<TRIPOS>BOND
     1    1    2 1    
     2    1   67 1    
     3    1   68 1    
     4    1   69 1    
     5    2    3 2    
     6    2    4 am   BACKBONE|DICT|INTERRES
     7    4    5 1    
     8    4   70 1    
     9    5    6 1    
    10    5   65 1    
    11    5   71 1    
    12    6    7 1    
    13    6   72 1    
    14    6   73 1    
    15    7    8 1    
    16    8    9 1    
    17    8   74 1    
    18    8   75 1    
    19    9   10 ar   
    20    9   14 ar   
    21   10   11 ar   
    22   10   76 1    
    23   11   12 ar   
    24   11   48 1    
    25   12   13 ar   
    26   12   77 1    
    27   13   14 ar   
    28   13   15 1    
    29   14   78 1    
    30   15   16 1    
    31   15   79 1    
    32   15   80 1    
    33   16   17 1    
    34   17   18 1    
    35   17   81 1    
    36   17   82 1    
    37   18   19 1    
    38   18   22 1    
    39   18   83 1    
    40   19   20 am   BACKBONE|DICT|INTERRES
    41   19   21 2    
    42   20   84 1    
    43   20   85 1    
    44   22   23 am   BACKBONE|DICT|INTERRES
    45   22   86 1    
    46   23   24 2    
    47   23   25 1    
    48   25   26 1    
    49   25   27 1    
    50   25   87 1    
    51   26   88 1    
    52   26   89 1    
    53   26   90 1    
    54   27   28 am   BACKBONE|DICT|INTERRES
    55   27   91 1    
    56   28   29 2    
    57   28   30 1    
    58   30   31 1    
    59   30   32 1    
    60   30   92 1    
    61   31   93 1    
    62   31   94 1    
    63   31   95 1    
    64   32   33 am   BACKBONE|DICT|INTERRES
    65   32   96 1    
    66   33   34 2    
    67   33   35 1    
    68   35   36 1    
    69   35   37 1    
    70   35   97 1    
    71   36   98 1    
    72   36   99 1    
    73   36  100 1    
    74   37   38 am   BACKBONE|DICT|INTERRES
    75   37  101 1    
    76   38   39 2    
    77   38   40 1    
    78   40   41 1    
    79   40   42 1    
    80   40  102 1    
    81   41  103 1    
    82   41  104 1    
    83   41  105 1    
    84   42   43 am   BACKBONE|DICT|INTERRES
    85   42  106 1    
    86   43   44 2    
    87   43   45 1    
    88   45   46 1    
    89   45   49 1    
    90   45  107 1    
    91   46   47 1    
    92   46  108 1    
    93   46  109 1    
    94   47   48 1    
    95   48  110 1    
    96   48  111 1    
    97   49   50 am   BACKBONE|DICT|INTERRES
    98   49  112 1    
    99   50   51 2    
   100   50   52 1    
   101   52   53 1    
   102   52   54 1    
   103   52  113 1    
   104   53  114 1    
   105   53  115 1    
   106   53  116 1    
   107   54   55 am   BACKBONE|DICT|INTERRES
   108   54  117 1    
   109   55   56 2    
   110   55   57 1    
   111   57   58 1    
   112   57   59 1    
   113   57  118 1    
   114   58  119 1    
   115   58  120 1    
   116   58  121 1    
   117   59   60 am   BACKBONE|DICT|INTERRES
   118   59  122 1    
   119   60   61 2    
   120   60   62 1    
   121   62   63 1    
   122   62   64 1    
   123   62  123 1    
   124   63  124 1    
   125   63  125 1    
   126   63  126 1    
   127   64   65 am   BACKBONE|DICT|INTERRES
   128   64  127 1    
   129   65   66 2    
@<TRIPOS>SUBSTRUCTURE
     1 UNK         1 GROUP             0       ****    0 ROOT    
