@<TRIPOS>MOLECULE
3R135
127   129    1
SMALL
USER_CHARGES


@<TRIPOS>ATOM
      1 CA        -78.8763   26.8497  -70.9247 C.3       0 UNK        -0.1998 
      2 C         -79.9923   27.5596  -71.6742 C.2       0 UNK         0.4909 
      3 O         -81.1289   27.5827  -71.2012 O.2       0 UNK        -0.5240 
      4 N         -79.6785   28.1354  -72.8420 N.am      1 UNK        -0.4739 
      5 CA        -80.6370   28.8043  -73.7318 C.3       1 UNK         0.0864 
      6 C6        -79.9309   29.7013  -74.7809 C.3       11 UNK        -0.0881 
      7 S7        -78.6722   28.8307  -75.7849 S.3       11 UNK        -0.2682 
      8 C8        -77.1376   29.6871  -75.3096 C.3       11 UNK         0.0289 
      9 C9        -76.7131   29.3610  -73.8848 C.ar      11 UNK        -0.0687 
     10 C10       -76.0491   28.1613  -73.6117 C.ar      11 UNK        -0.0823 
     11 C11       -75.6432   27.8468  -72.3071 C.ar      11 UNK        -0.0830 
     12 C12       -75.9013   28.7625  -71.2836 C.ar      11 UNK        -0.1021 
     13 C13       -76.5383   29.9780  -71.5464 C.ar      11 UNK        -0.0753 
     14 C14       -76.9465   30.2707  -72.8496 C.ar      11 UNK        -0.0933 
     15 C15       -76.7917   30.9707  -70.4205 C.3       11 UNK         0.0166 
     16 S16       -75.5353   32.2917  -70.3669 S.3       11 UNK        -0.2615 
     17 C17       -74.0229   31.3708  -69.9041 C.3       11 UNK        -0.0865 
     18 CA        -72.9141   31.3957  -70.9931 C.3       10 UNK         0.0862 
     19 C         -71.6851   30.5446  -70.5533 C.2       10 UNK         0.5551 
     20 N         -71.2781   29.5214  -71.2958 N.am      10 UNK        -0.7319 
     21 O         -71.0886   30.8227  -69.5159 O.2       10 UNK        -0.5018 
     22 N         -73.4387   31.0778  -72.3310 N.am      10 UNK        -0.4509 
     23 C         -72.8352   31.3881  -73.4830 C.2       10 UNK         0.4899 
     24 O         -71.7587   31.9831  -73.5688 O.2       10 UNK        -0.4839 
     25 CA        -73.5972   31.0035  -74.7579 C.3       9 UNK         0.0222 
     26 CB        -74.4348   32.1880  -75.2659 C.3       9 UNK        -0.1966 
     27 N         -72.7162   30.5326  -75.8253 N.am      9 UNK        -0.4218 
     28 C         -72.0205   29.3898  -75.7817 C.2       9 UNK         0.5020 
     29 O         -71.9900   28.6312  -74.8084 O.2       9 UNK        -0.5274 
     30 CA        -71.2271   29.0272  -77.0495 C.3       8 UNK         0.0270 
     31 CB        -69.7215   29.2516  -76.8320 C.3       8 UNK        -0.1976 
     32 N         -71.4617   27.6354  -77.4435 N.am      8 UNK        -0.4313 
     33 C         -72.6461   27.1437  -77.8329 C.2       8 UNK         0.5041 
     34 O         -73.6505   27.8417  -78.0017 O.2       8 UNK        -0.5577 
     35 CA        -72.7224   25.6282  -78.0837 C.3       7 UNK         0.0284 
     36 CB        -71.9860   24.8049  -77.0046 C.3       7 UNK        -0.1958 
     37 N         -74.1271   25.2338  -78.1195 N.am      7 UNK        -0.4454 
     38 C         -74.6506   24.1795  -78.7487 C.2       7 UNK         0.5089 
     39 O         -73.9924   23.3926  -79.4319 O.2       7 UNK        -0.5125 
     40 CA        -76.1590   23.9455  -78.5216 C.3       6 UNK         0.0408 
     41 CB        -76.7410   22.8765  -79.4642 C.3       6 UNK        -0.1791 
     42 N         -76.4161   23.5505  -77.1332 N.am      6 UNK        -0.4762 
     43 C         -76.3890   24.3801  -76.0793 C.2       6 UNK         0.5007 
     44 O         -76.2851   25.6028  -76.1910 O.2       6 UNK        -0.5032 
     45 CA        -76.4865   23.7200  -74.6903 C.3       5 UNK         0.0783 
     46 C46       -76.3937   24.7112  -73.5030 C.3       11 UNK        -0.0857 
     47 S47       -74.6900   25.3242  -73.2660 S.3       11 UNK        -0.2512 
     48 C48       -74.9200   26.5493  -71.9330 C.3       11 UNK         0.0225 
     49 N         -77.7157   22.9347  -74.6474 N.am      5 UNK        -0.4615 
     50 C         -77.8068   21.6545  -74.2654 C.2       4 UNK         0.5053 
     51 O         -76.8586   21.0079  -73.8199 O.2       4 UNK        -0.5105 
     52 CA        -79.1767   20.9601  -74.4147 C.3       4 UNK         0.0263 
     53 CB        -79.8960   20.9018  -73.0573 C.3       4 UNK        -0.1981 
     54 N         -80.0587   21.6019  -75.3932 N.am      4 UNK        -0.4224 
     55 C         -79.8163   21.7014  -76.7084 C.2       3 UNK         0.4895 
     56 O         -78.8834   21.1303  -77.2737 O.2       3 UNK        -0.5091 
     57 CA        -80.7382   22.6271  -77.5288 C.3       3 UNK         0.0250 
     58 CB        -81.7223   21.7952  -78.3671 C.3       3 UNK        -0.1996 
     59 N         -81.4912   23.6211  -76.7471 N.am      3 UNK        -0.4254 
     60 C         -80.9584   24.5585  -75.9495 C.2       2 UNK         0.5004 
     61 O         -79.7494   24.6616  -75.7253 O.2       2 UNK        -0.5226 
     62 CA        -81.9431   25.4960  -75.2413 C.3       2 UNK         0.0269 
     63 CB        -82.7444   24.7489  -74.1584 C.3       2 UNK        -0.1926 
     64 N         -81.1879   26.5793  -74.6216 N.am      2 UNK        -0.4687 
     65 C         -81.6280   27.8217  -74.3956 C.2       1 UNK         0.5165 
     66 O         -82.7652   28.2037  -74.6780 O.2       1 UNK        -0.5079 
     67 H67       -78.4734   27.4981  -70.1474 H         1 UNK         0.0900 
     68 H68       -78.0652   26.5655  -71.5925 H         1 UNK         0.0900 
     69 H69       -79.2529   25.9423  -70.4534 H         1 UNK         0.0900 
     70 H70       -78.7237   28.1156  -73.1760 H         1 UNK         0.2959 
     71 H71       -81.2461   29.4617  -73.1069 H         1 UNK         0.1079 
     72 H72       -79.4673   30.5480  -74.2745 H         1 UNK         0.0837 
     73 H73       -80.6624   30.1456  -75.4588 H         1 UNK         0.0837 
     74 H74       -76.3451   29.3893  -75.9984 H         1 UNK         0.0685 
     75 H75       -77.2653   30.7626  -75.4412 H         1 UNK         0.0685 
     76 H76       -75.8535   27.4828  -74.4298 H         1 UNK         0.1434 
     77 H77       -75.5983   28.5260  -70.2727 H         1 UNK         0.1329 
     78 H78       -77.4404   31.2105  -73.0556 H         1 UNK         0.1335 
     79 H79       -76.8236   30.4605  -69.4564 H         1 UNK         0.0680 
     80 H80       -77.7741   31.4262  -70.5533 H         1 UNK         0.0680 
     81 H81       -74.2798   30.3447  -69.6421 H         1 UNK         0.1032 
     82 H82       -73.6420   31.8143  -68.9822 H         1 UNK         0.1032 
     83 H83       -72.5507   32.4240  -71.0431 H         1 UNK         0.0461 
     84 H84       -71.7436   29.3015  -72.1636 H         1 UNK         0.3453 
     85 H85       -70.4802   28.9823  -70.9998 H         1 UNK         0.3453 
     86 H86       -74.3307   30.6018  -72.3499 H         1 UNK         0.2984 
     87 H87       -74.2674   30.1798  -74.5191 H         1 UNK         0.0554 
     88 H88       -75.0175   31.9170  -76.1464 H         1 UNK         0.0847 
     89 H89       -73.8088   33.0425  -75.5260 H         1 UNK         0.0847 
     90 H90       -75.1396   32.5214  -74.5026 H         1 UNK         0.0847 
     91 H91       -72.6541   31.1110  -76.6504 H         1 UNK         0.3141 
     92 H92       -71.5556   29.6660  -77.8723 H         1 UNK         0.0743 
     93 H93       -69.1520   29.0394  -77.7371 H         1 UNK         0.0784 
     94 H94       -69.5184   30.2877  -76.5574 H         1 UNK         0.0784 
     95 H95       -69.3310   28.6213  -76.0318 H         1 UNK         0.0784 
     96 H96       -70.6962   26.9932  -77.3015 H         1 UNK         0.3213 
     97 H97       -72.2726   25.4342  -79.0597 H         1 UNK         0.0855 
     98 H98       -72.3493   25.0430  -76.0034 H         1 UNK         0.0814 
     99 H99       -70.9115   24.9883  -77.0202 H         1 UNK         0.0814 
    100 H100      -72.1219   23.7344  -77.1596 H         1 UNK         0.0814 
    101 H101      -74.7526   25.8367  -77.5908 H         1 UNK         0.3105 
    102 H102      -76.6765   24.8853  -78.7258 H         1 UNK         0.0547 
    103 H103      -76.2961   21.8960  -79.2904 H         1 UNK         0.0837 
    104 H104      -77.8190   22.7806  -79.3371 H         1 UNK         0.0837 
    105 H105      -76.5613   23.1368  -80.5080 H         1 UNK         0.0837 
    106 H106      -76.5346   22.5608  -76.9647 H         1 UNK         0.3020 
    107 H107      -75.6296   23.0449  -74.6259 H         1 UNK         0.1245 
    108 H108      -77.0887   25.5419  -73.6331 H         1 UNK         0.0781 
    109 H109      -76.6897   24.2116  -72.5793 H         1 UNK         0.0781 
    110 H110      -75.4472   26.0678  -71.1081 H         1 UNK         0.0836 
    111 H111      -73.9317   26.8116  -71.5526 H         1 UNK         0.0836 
    112 H112      -78.5335   23.4065  -75.0296 H         1 UNK         0.3022 
    113 H113      -78.9901   19.9384  -74.7522 H         1 UNK         0.0747 
    114 H114      -80.8313   20.3459  -73.1262 H         1 UNK         0.0793 
    115 H115      -79.2787   20.4014  -72.3098 H         1 UNK         0.0793 
    116 H116      -80.1231   21.8989  -72.6774 H         1 UNK         0.0793 
    117 H117      -80.8557   22.0988  -75.0246 H         1 UNK         0.3047 
    118 H118      -80.0926   23.1823  -78.2123 H         1 UNK         0.0822 
    119 H119      -82.3029   22.4253  -79.0412 H         1 UNK         0.0807 
    120 H120      -82.4201   21.2411  -77.7381 H         1 UNK         0.0807 
    121 H121      -81.1929   21.0682  -78.9850 H         1 UNK         0.0807 
    122 H122      -82.4955   23.5986  -76.8554 H         1 UNK         0.2946 
    123 H123      -82.6219   25.9068  -75.9924 H         1 UNK         0.1144 
    124 H124      -83.4375   25.4180  -73.6479 H         1 UNK         0.0793 
    125 H125      -82.0893   24.3122  -73.4034 H         1 UNK         0.0793 
    126 H126      -83.3381   23.9407  -74.5867 H         1 UNK         0.0793 
    127 H127      -80.2143   26.3640  -74.4453 H         1 UNK         0.2896 
@<TRIPOS>BOND
     1    1    2 1    
     2    1   67 1    
     3    1   68 1    
     4    1   69 1    
     5    2    3 2    
     6    2    4 am   BACKBONE|DICT|INTERRES
     7    4    5 1    
     8    4   70 1    
     9    5    6 1    
    10    5   65 1    
    11    5   71 1    
    12    6    7 1    
    13    6   72 1    
    14    6   73 1    
    15    7    8 1    
    16    8    9 1    
    17    8   74 1    
    18    8   75 1    
    19    9   10 ar   
    20    9   14 ar   
    21   10   11 ar   
    22   10   76 1    
    23   11   12 ar   
    24   11   48 1    
    25   12   13 ar   
    26   12   77 1    
    27   13   14 ar   
    28   13   15 1    
    29   14   78 1    
    30   15   16 1    
    31   15   79 1    
    32   15   80 1    
    33   16   17 1    
    34   17   18 1    
    35   17   81 1    
    36   17   82 1    
    37   18   19 1    
    38   18   22 1    
    39   18   83 1    
    40   19   20 am   BACKBONE|DICT|INTERRES
    41   19   21 2    
    42   20   84 1    
    43   20   85 1    
    44   22   23 am   BACKBONE|DICT|INTERRES
    45   22   86 1    
    46   23   24 2    
    47   23   25 1    
    48   25   26 1    
    49   25   27 1    
    50   25   87 1    
    51   26   88 1    
    52   26   89 1    
    53   26   90 1    
    54   27   28 am   BACKBONE|DICT|INTERRES
    55   27   91 1    
    56   28   29 2    
    57   28   30 1    
    58   30   31 1    
    59   30   32 1    
    60   30   92 1    
    61   31   93 1    
    62   31   94 1    
    63   31   95 1    
    64   32   33 am   BACKBONE|DICT|INTERRES
    65   32   96 1    
    66   33   34 2    
    67   33   35 1    
    68   35   36 1    
    69   35   37 1    
    70   35   97 1    
    71   36   98 1    
    72   36   99 1    
    73   36  100 1    
    74   37   38 am   BACKBONE|DICT|INTERRES
    75   37  101 1    
    76   38   39 2    
    77   38   40 1    
    78   40   41 1    
    79   40   42 1    
    80   40  102 1    
    81   41  103 1    
    82   41  104 1    
    83   41  105 1    
    84   42   43 am   BACKBONE|DICT|INTERRES
    85   42  106 1    
    86   43   44 2    
    87   43   45 1    
    88   45   46 1    
    89   45   49 1    
    90   45  107 1    
    91   46   47 1    
    92   46  108 1    
    93   46  109 1    
    94   47   48 1    
    95   48  110 1    
    96   48  111 1    
    97   49   50 am   BACKBONE|DICT|INTERRES
    98   49  112 1    
    99   50   51 2    
   100   50   52 1    
   101   52   53 1    
   102   52   54 1    
   103   52  113 1    
   104   53  114 1    
   105   53  115 1    
   106   53  116 1    
   107   54   55 am   BACKBONE|DICT|INTERRES
   108   54  117 1    
   109   55   56 2    
   110   55   57 1    
   111   57   58 1    
   112   57   59 1    
   113   57  118 1    
   114   58  119 1    
   115   58  120 1    
   116   58  121 1    
   117   59   60 am   BACKBONE|DICT|INTERRES
   118   59  122 1    
   119   60   61 2    
   120   60   62 1    
   121   62   63 1    
   122   62   64 1    
   123   62  123 1    
   124   63  124 1    
   125   63  125 1    
   126   63  126 1    
   127   64   65 am   BACKBONE|DICT|INTERRES
   128   64  127 1    
   129   65   66 2    
@<TRIPOS>SUBSTRUCTURE
     1 UNK         1 GROUP             0       ****    0 ROOT    
