@<TRIPOS>MOLECULE
3R135
127   129    1
SMALL
USER_CHARGES


@<TRIPOS>ATOM
      1 CA        -78.8968   29.9812  -76.6193 C.3       0 UNK        -0.1998 
      2 C         -79.0892   28.8863  -75.5824 C.2       0 UNK         0.4909 
      3 O         -78.2788   27.9606  -75.5156 O.2       0 UNK        -0.5240 
      4 N         -80.1498   28.9964  -74.7736 N.am      1 UNK        -0.4739 
      5 CA        -80.5084   28.0265  -73.7361 C.3       1 UNK         0.0864 
      6 C6        -81.4888   28.6115  -72.6811 C.3       11 UNK        -0.0881 
      7 S7        -81.0285   30.2566  -72.0321 S.3       11 UNK        -0.2682 
      8 C8        -79.9342   29.8382  -70.6365 C.3       11 UNK         0.0289 
      9 C9        -78.6029   29.2778  -71.1143 C.ar      11 UNK        -0.0687 
     10 C10       -78.2294   27.9676  -70.7952 C.ar      11 UNK        -0.0823 
     11 C11       -77.0279   27.4388  -71.2767 C.ar      11 UNK        -0.0830 
     12 C12       -76.1898   28.2396  -72.0575 C.ar      11 UNK        -0.1021 
     13 C13       -76.5552   29.5442  -72.3897 C.ar      11 UNK        -0.0753 
     14 C14       -77.7571   30.0639  -71.9049 C.ar      11 UNK        -0.0933 
     15 C15       -75.6786   30.3622  -73.3221 C.3       11 UNK         0.0166 
     16 S16       -74.6485   31.5571  -72.4231 S.3       11 UNK        -0.2615 
     17 C17       -73.5784   32.1306  -73.7885 C.3       11 UNK        -0.0865 
     18 CA        -72.0776   31.7226  -73.6933 C.3       10 UNK         0.0862 
     19 C         -71.2235   32.5871  -72.7128 C.2       10 UNK         0.5551 
     20 N         -70.0429   32.1360  -72.3070 N.am      10 UNK        -0.7319 
     21 O         -71.6047   33.6980  -72.3507 O.2       10 UNK        -0.5018 
     22 N         -71.8579   30.2609  -73.6751 N.am      10 UNK        -0.4509 
     23 C         -71.8063   29.4365  -72.6152 C.2       10 UNK         0.4899 
     24 O         -71.9511   29.8008  -71.4484 O.2       10 UNK        -0.4839 
     25 CA        -71.5263   27.9453  -72.8982 C.3       9 UNK         0.0222 
     26 CB        -72.1763   27.0138  -71.8576 C.3       9 UNK        -0.1966 
     27 N         -71.9505   27.5385  -74.2408 N.am      9 UNK        -0.4218 
     28 C         -71.1626   27.5109  -75.3234 C.2       9 UNK         0.5020 
     29 O         -69.9681   27.8099  -75.3110 O.2       9 UNK        -0.5274 
     30 CA        -71.8207   27.1057  -76.6518 C.3       8 UNK         0.0270 
     31 CB        -71.6217   25.6045  -76.9148 C.3       8 UNK        -0.1976 
     32 N         -73.2490   27.4358  -76.7318 N.am      8 UNK        -0.4313 
     33 C         -73.7312   28.6843  -76.8349 C.2       8 UNK         0.5041 
     34 O         -73.0160   29.6827  -76.7323 O.2       8 UNK        -0.5577 
     35 CA        -75.2444   28.8843  -77.0800 C.3       7 UNK         0.0284 
     36 CB        -75.4912   29.8806  -78.2331 C.3       7 UNK        -0.1958 
     37 N         -76.0223   27.6523  -77.2765 N.am      7 UNK        -0.4454 
     38 C         -75.9165   26.7538  -78.2679 C.2       7 UNK         0.5089 
     39 O         -75.1505   26.8775  -79.2247 O.2       7 UNK        -0.5125 
     40 CA        -76.7792   25.4785  -78.1341 C.3       6 UNK         0.0408 
     41 CB        -76.2809   24.3347  -79.0405 C.3       6 UNK        -0.1791 
     42 N         -76.9199   24.9889  -76.7550 N.am      6 UNK        -0.4762 
     43 C         -75.9394   24.7477  -75.8683 C.2       6 UNK         0.5007 
     44 O         -74.7450   24.9528  -76.0846 O.2       6 UNK        -0.5032 
     45 CA        -76.3782   24.2045  -74.4995 C.3       5 UNK         0.0783 
     46 C46       -77.1144   25.3105  -73.7075 C.3       11 UNK        -0.0857 
     47 S47       -77.5907   24.8182  -72.0164 S.3       11 UNK        -0.2512 
     48 C48       -76.6470   25.9926  -70.9868 C.3       11 UNK         0.0225 
     49 N         -77.1890   23.0012  -74.6885 N.am      5 UNK        -0.4615 
     50 C         -76.6920   21.7665  -74.8440 C.2       4 UNK         0.5053 
     51 O         -75.4907   21.5039  -74.7834 O.2       4 UNK        -0.5105 
     52 CA        -77.6909   20.6194  -75.0929 C.3       4 UNK         0.0263 
     53 CB        -77.9617   19.8574  -73.7852 C.3       4 UNK        -0.1981 
     54 N         -78.9656   21.0759  -75.6492 N.am      4 UNK        -0.4224 
     55 C         -79.1567   21.4531  -76.9218 C.2       3 UNK         0.4895 
     56 O         -78.3060   21.3450  -77.8046 O.2       3 UNK        -0.5091 
     57 CA        -80.5211   22.0889  -77.2587 C.3       3 UNK         0.0250 
     58 CB        -81.4849   21.0310  -77.8197 C.3       3 UNK        -0.1996 
     59 N         -81.1525   22.7700  -76.1187 N.am      3 UNK        -0.4254 
     60 C         -80.6175   23.8175  -75.4762 C.2       2 UNK         0.5004 
     61 O         -79.5484   24.3353  -75.8055 O.2       2 UNK        -0.5226 
     62 CA        -81.3475   24.2946  -74.2086 C.3       2 UNK         0.0269 
     63 CB        -81.1541   23.2796  -73.0679 C.3       2 UNK        -0.1926 
     64 N         -80.8655   25.6000  -73.7495 N.am      2 UNK        -0.4687 
     65 C         -81.1178   26.7596  -74.3690 C.2       1 UNK         0.5165 
     66 O         -81.8474   26.8589  -75.3601 O.2       1 UNK        -0.5079 
     67 H67       -78.8244   29.5433  -77.6142 H         1 UNK         0.0900 
     68 H68       -77.9791   30.5315  -76.4153 H         1 UNK         0.0900 
     69 H69       -79.7241   30.6905  -76.6214 H         1 UNK         0.0900 
     70 H70       -80.7857   29.7732  -74.8785 H         1 UNK         0.2959 
     71 H71       -79.5850   27.7361  -73.2320 H         1 UNK         0.1079 
     72 H72       -81.5994   27.9206  -71.8431 H         1 UNK         0.0837 
     73 H73       -82.4869   28.7169  -73.1117 H         1 UNK         0.0837 
     74 H74       -79.7476   30.7406  -70.0527 H         1 UNK         0.0685 
     75 H75       -80.4436   29.1400  -69.9705 H         1 UNK         0.0685 
     76 H76       -78.8838   27.3479  -70.1973 H         1 UNK         0.1434 
     77 H77       -75.2680   27.8347  -72.4460 H         1 UNK         0.1329 
     78 H78       -78.0502   31.0711  -72.1679 H         1 UNK         0.1335 
     79 H79       -75.0281   29.6999  -73.8950 H         1 UNK         0.0680 
     80 H80       -76.3018   30.8898  -74.0460 H         1 UNK         0.0680 
     81 H81       -73.6760   33.2152  -73.8604 H         1 UNK         0.1032 
     82 H82       -73.9774   31.7597  -74.7340 H         1 UNK         0.1032 
     83 H83       -71.6598   32.0120  -74.6584 H         1 UNK         0.0461 
     84 H84       -69.4850   32.6994  -71.6851 H         1 UNK         0.3453 
     85 H85       -69.7170   31.2285  -72.5981 H         1 UNK         0.3453 
     86 H86       -71.7234   29.8485  -74.5882 H         1 UNK         0.2984 
     87 H87       -70.4459   27.8160  -72.8082 H         1 UNK         0.0554 
     88 H88       -71.9591   25.9671  -72.0711 H         1 UNK         0.0847 
     89 H89       -73.2573   27.1313  -71.8221 H         1 UNK         0.0847 
     90 H90       -71.7965   27.2196  -70.8560 H         1 UNK         0.0847 
     91 H91       -72.9230   27.2953  -74.3605 H         1 UNK         0.3141 
     92 H92       -71.3120   27.6550  -77.4470 H         1 UNK         0.0743 
     93 H93       -72.0703   24.9932  -76.1309 H         1 UNK         0.0784 
     94 H94       -72.0616   25.3053  -77.8665 H         1 UNK         0.0784 
     95 H95       -70.5608   25.3536  -76.9542 H         1 UNK         0.0784 
     96 H96       -73.8934   26.6513  -76.7735 H         1 UNK         0.3213 
     97 H97       -75.6407   29.3339  -76.1700 H         1 UNK         0.0855 
     98 H98       -75.0823   30.8631  -77.9942 H         1 UNK         0.0814 
     99 H99       -76.5531   30.0134  -78.4334 H         1 UNK         0.0814 
    100 H100      -75.0174   29.5523  -79.1587 H         1 UNK         0.0814 
    101 H101      -76.7288   27.4773  -76.5634 H         1 UNK         0.3105 
    102 H102      -77.7823   25.7533  -78.4631 H         1 UNK         0.0547 
    103 H103      -76.2768   24.6349  -80.0890 H         1 UNK         0.0837 
    104 H104      -75.2655   24.0316  -78.7825 H         1 UNK         0.0837 
    105 H105      -76.9225   23.4575  -78.9600 H         1 UNK         0.0837 
    106 H106      -77.8780   24.8162  -76.4512 H         1 UNK         0.3020 
    107 H107      -75.4736   23.9411  -73.9459 H         1 UNK         0.1245 
    108 H108      -78.0208   25.6274  -74.2218 H         1 UNK         0.0781 
    109 H109      -76.4850   26.1969  -73.6694 H         1 UNK         0.0781 
    110 H110      -75.5795   25.8326  -71.1463 H         1 UNK         0.0836 
    111 H111      -76.8336   25.7711  -69.9350 H         1 UNK         0.0836 
    112 H112      -78.1780   23.1606  -74.8290 H         1 UNK         0.3022 
    113 H113      -77.2299   19.9290  -75.8028 H         1 UNK         0.0747 
    114 H114      -78.6173   19.0024  -73.9518 H         1 UNK         0.0793 
    115 H115      -77.0340   19.4734  -73.3585 H         1 UNK         0.0793 
    116 H116      -78.4255   20.4969  -73.0328 H         1 UNK         0.0793 
    117 H117      -79.7343   21.1735  -75.0030 H         1 UNK         0.3047 
    118 H118      -80.3444   22.8379  -78.0339 H         1 UNK         0.0822 
    119 H119      -82.4217   21.4814  -78.1486 H         1 UNK         0.0807 
    120 H120      -81.7204   20.2646  -77.0802 H         1 UNK         0.0807 
    121 H121      -81.0500   20.5268  -78.6841 H         1 UNK         0.0807 
    122 H122      -82.0300   22.3892  -75.7933 H         1 UNK         0.2946 
    123 H123      -82.4125   24.3786  -74.4378 H         1 UNK         0.1144 
    124 H124      -81.5659   22.3038  -73.3280 H         1 UNK         0.0793 
    125 H125      -81.6605   23.6049  -72.1589 H         1 UNK         0.0793 
    126 H126      -80.0996   23.1358  -72.8278 H         1 UNK         0.0793 
    127 H127      -80.2388   25.5915  -72.9575 H         1 UNK         0.2896 
@<TRIPOS>BOND
     1    1    2 1    
     2    1   67 1    
     3    1   68 1    
     4    1   69 1    
     5    2    3 2    
     6    2    4 am   BACKBONE|DICT|INTERRES
     7    4    5 1    
     8    4   70 1    
     9    5    6 1    
    10    5   65 1    
    11    5   71 1    
    12    6    7 1    
    13    6   72 1    
    14    6   73 1    
    15    7    8 1    
    16    8    9 1    
    17    8   74 1    
    18    8   75 1    
    19    9   10 ar   
    20    9   14 ar   
    21   10   11 ar   
    22   10   76 1    
    23   11   12 ar   
    24   11   48 1    
    25   12   13 ar   
    26   12   77 1    
    27   13   14 ar   
    28   13   15 1    
    29   14   78 1    
    30   15   16 1    
    31   15   79 1    
    32   15   80 1    
    33   16   17 1    
    34   17   18 1    
    35   17   81 1    
    36   17   82 1    
    37   18   19 1    
    38   18   22 1    
    39   18   83 1    
    40   19   20 am   BACKBONE|DICT|INTERRES
    41   19   21 2    
    42   20   84 1    
    43   20   85 1    
    44   22   23 am   BACKBONE|DICT|INTERRES
    45   22   86 1    
    46   23   24 2    
    47   23   25 1    
    48   25   26 1    
    49   25   27 1    
    50   25   87 1    
    51   26   88 1    
    52   26   89 1    
    53   26   90 1    
    54   27   28 am   BACKBONE|DICT|INTERRES
    55   27   91 1    
    56   28   29 2    
    57   28   30 1    
    58   30   31 1    
    59   30   32 1    
    60   30   92 1    
    61   31   93 1    
    62   31   94 1    
    63   31   95 1    
    64   32   33 am   BACKBONE|DICT|INTERRES
    65   32   96 1    
    66   33   34 2    
    67   33   35 1    
    68   35   36 1    
    69   35   37 1    
    70   35   97 1    
    71   36   98 1    
    72   36   99 1    
    73   36  100 1    
    74   37   38 am   BACKBONE|DICT|INTERRES
    75   37  101 1    
    76   38   39 2    
    77   38   40 1    
    78   40   41 1    
    79   40   42 1    
    80   40  102 1    
    81   41  103 1    
    82   41  104 1    
    83   41  105 1    
    84   42   43 am   BACKBONE|DICT|INTERRES
    85   42  106 1    
    86   43   44 2    
    87   43   45 1    
    88   45   46 1    
    89   45   49 1    
    90   45  107 1    
    91   46   47 1    
    92   46  108 1    
    93   46  109 1    
    94   47   48 1    
    95   48  110 1    
    96   48  111 1    
    97   49   50 am   BACKBONE|DICT|INTERRES
    98   49  112 1    
    99   50   51 2    
   100   50   52 1    
   101   52   53 1    
   102   52   54 1    
   103   52  113 1    
   104   53  114 1    
   105   53  115 1    
   106   53  116 1    
   107   54   55 am   BACKBONE|DICT|INTERRES
   108   54  117 1    
   109   55   56 2    
   110   55   57 1    
   111   57   58 1    
   112   57   59 1    
   113   57  118 1    
   114   58  119 1    
   115   58  120 1    
   116   58  121 1    
   117   59   60 am   BACKBONE|DICT|INTERRES
   118   59  122 1    
   119   60   61 2    
   120   60   62 1    
   121   62   63 1    
   122   62   64 1    
   123   62  123 1    
   124   63  124 1    
   125   63  125 1    
   126   63  126 1    
   127   64   65 am   BACKBONE|DICT|INTERRES
   128   64  127 1    
   129   65   66 2    
@<TRIPOS>SUBSTRUCTURE
     1 UNK         1 GROUP             0       ****    0 ROOT    
