@<TRIPOS>MOLECULE
3R135
127   129    1
SMALL
USER_CHARGES


@<TRIPOS>ATOM
      1 CA        -82.8804   31.3506  -77.1194 C.3       0 UNK        -0.1998 
      2 C         -81.8272   30.2850  -76.8548 C.2       0 UNK         0.4909 
      3 O         -80.8998   30.1286  -77.6500 O.2       0 UNK        -0.5240 
      4 N         -81.9655   29.5487  -75.7489 N.am      1 UNK        -0.4739 
      5 CA        -81.0649   28.4779  -75.3246 C.3       1 UNK         0.0864 
      6 C6        -79.7355   28.9928  -74.7077 C.3       11 UNK        -0.0881 
      7 S7        -79.9032   30.2994  -73.4356 S.3       11 UNK        -0.2682 
      8 C8        -79.7220   29.3842  -71.8653 C.3       11 UNK         0.0289 
      9 C9        -78.4761   28.5053  -71.7913 C.ar      11 UNK        -0.0687 
     10 C10       -78.5844   27.2088  -71.2813 C.ar      11 UNK        -0.0823 
     11 C11       -77.4758   26.3591  -71.2412 C.ar      11 UNK        -0.0830 
     12 C12       -76.2417   26.8244  -71.6985 C.ar      11 UNK        -0.1021 
     13 C13       -76.1166   28.1187  -72.2094 C.ar      11 UNK        -0.0753 
     14 C14       -77.2307   28.9618  -72.2386 C.ar      11 UNK        -0.0933 
     15 C15       -74.7877   28.5745  -72.7820 C.3       11 UNK         0.0166 
     16 S16       -73.6381   29.1217  -71.4809 S.3       11 UNK        -0.2615 
     17 C17       -73.7574   30.9405  -71.6357 C.3       11 UNK        -0.0865 
     18 CA        -72.6658   31.5482  -72.5601 C.3       10 UNK         0.0862 
     19 C         -71.2659   31.5943  -71.8761 C.2       10 UNK         0.5551 
     20 N         -70.2363   30.9395  -72.4018 N.am      10 UNK        -0.7319 
     21 O         -71.1100   32.2543  -70.8515 O.2       10 UNK        -0.5018 
     22 N         -72.6835   30.9041  -73.8793 N.am      10 UNK        -0.4509 
     23 C         -72.2117   31.4173  -75.0185 C.2       10 UNK         0.4899 
     24 O         -71.7894   32.5692  -75.1284 O.2       10 UNK        -0.4839 
     25 CA        -72.2215   30.4710  -76.2371 C.3       9 UNK         0.0222 
     26 CB        -71.1719   30.8642  -77.2978 C.3       9 UNK        -0.1966 
     27 N         -72.0955   29.0441  -75.8945 N.am      9 UNK        -0.4218 
     28 C         -71.0787   28.4522  -75.2409 C.2       9 UNK         0.5020 
     29 O         -70.1392   29.0755  -74.7443 O.2       9 UNK        -0.5274 
     30 CA        -71.1001   26.9150  -75.0941 C.3       8 UNK         0.0270 
     31 CB        -71.2928   26.5032  -73.6251 C.3       8 UNK        -0.1976 
     32 N         -72.1124   26.2516  -75.9216 N.am      8 UNK        -0.4313 
     33 C         -72.0449   26.1421  -77.2581 C.2       8 UNK         0.5041 
     34 O         -71.0636   26.4880  -77.9170 O.2       8 UNK        -0.5577 
     35 CA        -73.2783   25.5904  -78.0010 C.3       7 UNK         0.0284 
     36 CB        -73.0294   24.1409  -78.4478 C.3       7 UNK        -0.1958 
     37 N         -74.5293   25.6459  -77.2383 N.am      7 UNK        -0.4454 
     38 C         -75.1048   26.7520  -76.7409 C.2       7 UNK         0.5089 
     39 O         -74.6503   27.8865  -76.8934 O.2       7 UNK        -0.5125 
     40 CA        -76.3661   26.5552  -75.8780 C.3       6 UNK         0.0408 
     41 CB        -77.6214   26.8041  -76.7266 C.3       6 UNK        -0.1791 
     42 N         -76.4619   25.2322  -75.2469 N.am      6 UNK        -0.4762 
     43 C         -75.5477   24.6927  -74.4208 C.2       6 UNK         0.5007 
     44 O         -74.5033   25.2629  -74.1004 O.2       6 UNK        -0.5032 
     45 CA        -75.7859   23.2497  -73.9263 C.3       5 UNK         0.0783 
     46 C46       -76.1778   23.1896  -72.4293 C.3       11 UNK        -0.0857 
     47 S47       -77.8793   23.7416  -72.0591 S.3       11 UNK        -0.2512 
     48 C48       -77.6191   24.9407  -70.7109 C.3       11 UNK         0.0225 
     49 N         -76.6907   22.4752  -74.7862 N.am      5 UNK        -0.4615 
     50 C         -76.4015   22.1205  -76.0458 C.2       4 UNK         0.5053 
     51 O         -75.3373   22.4016  -76.5982 O.2       4 UNK        -0.5105 
     52 CA        -77.4616   21.3394  -76.8421 C.3       4 UNK         0.0263 
     53 CB        -77.1781   19.8308  -76.7570 C.3       4 UNK        -0.1981 
     54 N         -78.8673   21.5818  -76.4920 N.am      4 UNK        -0.4224 
     55 C         -79.4892   22.7683  -76.4339 C.2       3 UNK         0.4895 
     56 O         -78.9063   23.8538  -76.4783 O.2       3 UNK        -0.5091 
     57 CA        -81.0306   22.7505  -76.3785 C.3       3 UNK         0.0250 
     58 CB        -81.6558   21.3709  -76.0588 C.3       3 UNK        -0.1996 
     59 N         -81.5510   23.8046  -75.5022 N.am      3 UNK        -0.4254 
     60 C         -81.4498   23.8696  -74.1669 C.2       2 UNK         0.5004 
     61 O         -80.9825   22.9723  -73.4650 O.2       2 UNK        -0.5226 
     62 CA        -81.9260   25.1839  -73.5294 C.3       2 UNK         0.0269 
     63 CB        -81.6553   25.2560  -72.0148 C.3       2 UNK        -0.1926 
     64 N         -81.2849   26.3032  -74.2234 N.am      2 UNK        -0.4687 
     65 C         -81.8336   27.5099  -74.4076 C.2       1 UNK         0.5165 
     66 O         -82.9122   27.8543  -73.9150 O.2       1 UNK        -0.5079 
     67 H67       -83.6382   31.3769  -76.3365 H         1 UNK         0.0900 
     68 H68       -83.3794   31.1582  -78.0687 H         1 UNK         0.0900 
     69 H69       -82.4134   32.3337  -77.1719 H         1 UNK         0.0900 
     70 H70       -82.7613   29.6737  -75.1348 H         1 UNK         0.2959 
     71 H71       -80.8155   27.8983  -76.2167 H         1 UNK         0.1079 
     72 H72       -79.1275   29.4203  -75.5063 H         1 UNK         0.0837 
     73 H73       -79.1408   28.1635  -74.3246 H         1 UNK         0.0837 
     74 H74       -79.6938   30.1008  -71.0437 H         1 UNK         0.0685 
     75 H75       -80.6222   28.7845  -71.7208 H         1 UNK         0.0685 
     76 H76       -79.5395   26.8585  -70.9192 H         1 UNK         0.1434 
     77 H77       -75.3784   26.1740  -71.6789 H         1 UNK         0.1329 
     78 H78       -77.1366   29.9618  -72.6387 H         1 UNK         0.1335 
     79 H79       -74.9477   29.3614  -73.5200 H         1 UNK         0.0680 
     80 H80       -74.3342   27.7507  -73.3305 H         1 UNK         0.0680 
     81 H81       -74.7474   31.2050  -72.0100 H         1 UNK         0.1032 
     82 H82       -73.7068   31.3789  -70.6372 H         1 UNK         0.1032 
     83 H83       -72.9373   32.5939  -72.7167 H         1 UNK         0.0461 
     84 H84       -69.3396   30.9891  -71.9457 H         1 UNK         0.3453 
     85 H85       -70.3394   30.3858  -73.2457 H         1 UNK         0.3453 
     86 H86       -72.9657   29.9362  -73.8785 H         1 UNK         0.2984 
     87 H87       -73.2064   30.5812  -76.6933 H         1 UNK         0.0554 
     88 H88       -71.2087   30.1964  -78.1585 H         1 UNK         0.0847 
     89 H89       -70.1594   30.8347  -76.8937 H         1 UNK         0.0847 
     90 H90       -71.3452   31.8757  -77.6673 H         1 UNK         0.0847 
     91 H91       -72.8506   28.4578  -76.2402 H         1 UNK         0.3141 
     92 H92       -70.1189   26.5569  -75.4128 H         1 UNK         0.0743 
     93 H93       -71.2141   25.4227  -73.5035 H         1 UNK         0.0784 
     94 H94       -70.5324   26.9559  -72.9872 H         1 UNK         0.0784 
     95 H95       -72.2633   26.8100  -73.2388 H         1 UNK         0.0784 
     96 H96       -72.9470   25.9246  -75.4455 H         1 UNK         0.3213 
     97 H97       -73.4154   26.2062  -78.8923 H         1 UNK         0.0855 
     98 H98       -72.1287   24.0683  -79.0591 H         1 UNK         0.0814 
     99 H99       -73.8573   23.7603  -79.0465 H         1 UNK         0.0814 
    100 H100      -72.8994   23.4739  -77.5945 H         1 UNK         0.0814 
    101 H101      -74.9674   24.7568  -77.0326 H         1 UNK         0.3105 
    102 H102      -76.3401   27.2960  -75.0772 H         1 UNK         0.0547 
    103 H103      -77.6343   27.8224  -77.1178 H         1 UNK         0.0837 
    104 H104      -77.6705   26.1256  -77.5794 H         1 UNK         0.0837 
    105 H105      -78.5303   26.6646  -76.1444 H         1 UNK         0.0837 
    106 H106      -77.2747   24.6747  -75.4926 H         1 UNK         0.3020 
    107 H107      -74.8083   22.7672  -74.0035 H         1 UNK         0.1245 
    108 H108      -75.4599   23.7526  -71.8308 H         1 UNK         0.0781 
    109 H109      -76.0924   22.1595  -72.0804 H         1 UNK         0.0781 
    110 H110      -76.7486   24.6659  -70.1137 H         1 UNK         0.0836 
    111 H111      -78.4720   24.8842  -70.0329 H         1 UNK         0.0836 
    112 H112      -77.5965   22.2468  -74.4016 H         1 UNK         0.3022 
    113 H113      -77.3475   21.6430  -77.8847 H         1 UNK         0.0747 
    114 H114      -77.8222   19.2650  -77.4306 H         1 UNK         0.0793 
    115 H115      -76.1475   19.6086  -77.0385 H         1 UNK         0.0793 
    116 H116      -77.3290   19.4493  -75.7462 H         1 UNK         0.0793 
    117 H117      -79.4460   20.7580  -76.4156 H         1 UNK         0.3047 
    118 H118      -81.3566   23.0210  -77.3840 H         1 UNK         0.0822 
    119 H119      -81.2956   20.9603  -75.1148 H         1 UNK         0.0807 
    120 H120      -81.4362   20.6443  -76.8420 H         1 UNK         0.0807 
    121 H121      -82.7417   21.4405  -75.9928 H         1 UNK         0.0807 
    122 H122      -81.9316   24.6090  -75.9808 H         1 UNK         0.2946 
    123 H123      -83.0065   25.2332  -73.6853 H         1 UNK         0.1144 
    124 H124      -82.2228   24.4908  -71.4840 H         1 UNK         0.0793 
    125 H125      -80.6029   25.0856  -71.7934 H         1 UNK         0.0793 
    126 H126      -81.9430   26.2214  -71.5987 H         1 UNK         0.0793 
    127 H127      -80.3958   26.0880  -74.6546 H         1 UNK         0.2896 
@<TRIPOS>BOND
     1    1    2 1    
     2    1   67 1    
     3    1   68 1    
     4    1   69 1    
     5    2    3 2    
     6    2    4 am   BACKBONE|DICT|INTERRES
     7    4    5 1    
     8    4   70 1    
     9    5    6 1    
    10    5   65 1    
    11    5   71 1    
    12    6    7 1    
    13    6   72 1    
    14    6   73 1    
    15    7    8 1    
    16    8    9 1    
    17    8   74 1    
    18    8   75 1    
    19    9   10 ar   
    20    9   14 ar   
    21   10   11 ar   
    22   10   76 1    
    23   11   12 ar   
    24   11   48 1    
    25   12   13 ar   
    26   12   77 1    
    27   13   14 ar   
    28   13   15 1    
    29   14   78 1    
    30   15   16 1    
    31   15   79 1    
    32   15   80 1    
    33   16   17 1    
    34   17   18 1    
    35   17   81 1    
    36   17   82 1    
    37   18   19 1    
    38   18   22 1    
    39   18   83 1    
    40   19   20 am   BACKBONE|DICT|INTERRES
    41   19   21 2    
    42   20   84 1    
    43   20   85 1    
    44   22   23 am   BACKBONE|DICT|INTERRES
    45   22   86 1    
    46   23   24 2    
    47   23   25 1    
    48   25   26 1    
    49   25   27 1    
    50   25   87 1    
    51   26   88 1    
    52   26   89 1    
    53   26   90 1    
    54   27   28 am   BACKBONE|DICT|INTERRES
    55   27   91 1    
    56   28   29 2    
    57   28   30 1    
    58   30   31 1    
    59   30   32 1    
    60   30   92 1    
    61   31   93 1    
    62   31   94 1    
    63   31   95 1    
    64   32   33 am   BACKBONE|DICT|INTERRES
    65   32   96 1    
    66   33   34 2    
    67   33   35 1    
    68   35   36 1    
    69   35   37 1    
    70   35   97 1    
    71   36   98 1    
    72   36   99 1    
    73   36  100 1    
    74   37   38 am   BACKBONE|DICT|INTERRES
    75   37  101 1    
    76   38   39 2    
    77   38   40 1    
    78   40   41 1    
    79   40   42 1    
    80   40  102 1    
    81   41  103 1    
    82   41  104 1    
    83   41  105 1    
    84   42   43 am   BACKBONE|DICT|INTERRES
    85   42  106 1    
    86   43   44 2    
    87   43   45 1    
    88   45   46 1    
    89   45   49 1    
    90   45  107 1    
    91   46   47 1    
    92   46  108 1    
    93   46  109 1    
    94   47   48 1    
    95   48  110 1    
    96   48  111 1    
    97   49   50 am   BACKBONE|DICT|INTERRES
    98   49  112 1    
    99   50   51 2    
   100   50   52 1    
   101   52   53 1    
   102   52   54 1    
   103   52  113 1    
   104   53  114 1    
   105   53  115 1    
   106   53  116 1    
   107   54   55 am   BACKBONE|DICT|INTERRES
   108   54  117 1    
   109   55   56 2    
   110   55   57 1    
   111   57   58 1    
   112   57   59 1    
   113   57  118 1    
   114   58  119 1    
   115   58  120 1    
   116   58  121 1    
   117   59   60 am   BACKBONE|DICT|INTERRES
   118   59  122 1    
   119   60   61 2    
   120   60   62 1    
   121   62   63 1    
   122   62   64 1    
   123   62  123 1    
   124   63  124 1    
   125   63  125 1    
   126   63  126 1    
   127   64   65 am   BACKBONE|DICT|INTERRES
   128   64  127 1    
   129   65   66 2    
@<TRIPOS>SUBSTRUCTURE
     1 UNK         1 GROUP             0       ****    0 ROOT    
