@<TRIPOS>MOLECULE
3R135
127   129    1
SMALL
USER_CHARGES


@<TRIPOS>ATOM
      1 CA        -82.5649   26.4765  -72.0898 C.3       0 UNK        -0.1998 
      2 C         -82.1776   26.7773  -73.5293 C.2       0 UNK         0.4909 
      3 O         -82.7441   26.1927  -74.4532 O.2       0 UNK        -0.5240 
      4 N         -81.2227   27.6949  -73.7293 N.am      1 UNK        -0.4739 
      5 CA        -80.7317   28.1034  -75.0485 C.3       1 UNK         0.0864 
      6 C6        -79.9889   29.4693  -75.0023 C.3       11 UNK        -0.0881 
      7 S7        -78.2708   29.4408  -74.3848 S.3       11 UNK        -0.2682 
      8 C8        -78.5010   29.6024  -72.5881 C.3       11 UNK         0.0289 
      9 C9        -77.3582   28.9325  -71.8431 C.ar      11 UNK        -0.0687 
     10 C10       -77.1627   27.5539  -71.9664 C.ar      11 UNK        -0.0823 
     11 C11       -76.0985   26.9246  -71.3164 C.ar      11 UNK        -0.0830 
     12 C12       -75.2317   27.6843  -70.5242 C.ar      11 UNK        -0.1021 
     13 C13       -75.4241   29.0633  -70.3836 C.ar      11 UNK        -0.0753 
     14 C14       -76.4928   29.6811  -71.0416 C.ar      11 UNK        -0.0933 
     15 C15       -74.4786   29.8849  -69.5186 C.3       11 UNK         0.0166 
     16 S16       -72.9616   30.3517  -70.4128 S.3       11 UNK        -0.2615 
     17 C17       -73.5952   31.5441  -71.6457 C.3       11 UNK        -0.0865 
     18 CA        -73.6923   30.9369  -73.0772 C.3       10 UNK         0.0862 
     19 C         -74.4297   31.8657  -74.0888 C.2       10 UNK         0.5551 
     20 N         -74.0680   31.8716  -75.3677 N.am      10 UNK        -0.7319 
     21 O         -75.3588   32.5785  -73.7174 O.2       10 UNK        -0.5018 
     22 N         -72.4150   30.4002  -73.5763 N.am      10 UNK        -0.4509 
     23 C         -71.2840   31.0902  -73.7850 C.2       10 UNK         0.4899 
     24 O         -71.1481   32.2860  -73.5246 O.2       10 UNK        -0.4839 
     25 CA        -70.0925   30.3311  -74.4020 C.3       9 UNK         0.0222 
     26 CB        -69.0850   29.9412  -73.3080 C.3       9 UNK        -0.1966 
     27 N         -70.4734   29.1319  -75.1539 N.am      9 UNK        -0.4218 
     28 C         -71.1953   29.1243  -76.2829 C.2       9 UNK         0.5020 
     29 O         -71.5821   30.1463  -76.8541 O.2       9 UNK        -0.5274 
     30 CA        -71.5966   27.7494  -76.8558 C.3       8 UNK         0.0270 
     31 CB        -70.9395   26.5427  -76.1465 C.3       8 UNK        -0.1976 
     32 N         -73.0537   27.5859  -76.8745 N.am      8 UNK        -0.4313 
     33 C         -73.9028   27.7351  -75.8481 C.2       8 UNK         0.5041 
     34 O         -73.5501   28.0071  -74.7007 O.2       8 UNK        -0.5577 
     35 CA        -75.3982   27.5447  -76.1496 C.3       7 UNK         0.0284 
     36 CB        -75.9457   28.6534  -77.0700 C.3       7 UNK        -0.1958 
     37 N         -75.7268   26.2074  -76.6544 N.am      7 UNK        -0.4454 
     38 C         -75.3592   25.6088  -77.7986 C.2       7 UNK         0.5089 
     39 O         -74.6915   26.1573  -78.6774 O.2       7 UNK        -0.5125 
     40 CA        -75.8396   24.1540  -77.9966 C.3       6 UNK         0.0408 
     41 CB        -74.8599   23.3106  -78.8410 C.3       6 UNK        -0.1791 
     42 N         -76.1992   23.4870  -76.7303 N.am      6 UNK        -0.4762 
     43 C         -75.3514   23.1681  -75.7363 C.2       6 UNK         0.5007 
     44 O         -74.1277   23.2474  -75.8511 O.2       6 UNK        -0.5032 
     45 CA        -75.9411   22.7406  -74.3735 C.3       5 UNK         0.0783 
     46 C46       -75.1030   23.2729  -73.1719 C.3       11 UNK        -0.0857 
     47 S47       -75.0411   25.0984  -73.0708 S.3       11 UNK        -0.2512 
     48 C48       -75.8818   25.4302  -71.4960 C.3       11 UNK         0.0225 
     49 N         -77.3718   23.0509  -74.2276 N.am      5 UNK        -0.4615 
     50 C         -78.1776   22.3779  -73.3948 C.2       4 UNK         0.5053 
     51 O         -77.8333   21.3661  -72.7829 O.2       4 UNK        -0.5105 
     52 CA        -79.5941   22.9290  -73.1759 C.3       4 UNK         0.0263 
     53 CB        -79.5718   24.1342  -72.2242 C.3       4 UNK        -0.1981 
     54 N         -80.2643   23.2893  -74.4254 N.am      4 UNK        -0.4224 
     55 C         -80.8739   22.3982  -75.2229 C.2       3 UNK         0.4895 
     56 O         -80.9197   21.1906  -74.9845 O.2       3 UNK        -0.5091 
     57 CA        -81.5668   22.9231  -76.4951 C.3       3 UNK         0.0250 
     58 CB        -83.0837   23.0389  -76.2741 C.3       3 UNK        -0.1996 
     59 N         -81.0476   24.2083  -76.9669 N.am      3 UNK        -0.4254 
     60 C         -79.8210   24.3798  -77.4778 C.2       2 UNK         0.5004 
     61 O         -79.0111   23.4643  -77.6139 O.2       2 UNK        -0.5226 
     62 CA        -79.4037   25.8141  -77.8533 C.3       2 UNK         0.0269 
     63 CB        -79.6573   26.0804  -79.3446 C.3       2 UNK        -0.1926 
     64 N         -80.0511   26.8555  -77.0492 N.am      2 UNK        -0.4687 
     65 C         -79.9282   26.9664  -75.7191 C.2       1 UNK         0.5165 
     66 O         -79.2429   26.1973  -75.0356 O.2       1 UNK        -0.5079 
     67 H67       -83.4603   27.0354  -71.8197 H         1 UNK         0.0900 
     68 H68       -81.7695   26.7431  -71.3940 H         1 UNK         0.0900 
     69 H69       -82.7805   25.4153  -71.9689 H         1 UNK         0.0900 
     70 H70       -80.7649   28.1192  -72.9377 H         1 UNK         0.2959 
     71 H71       -81.6230   28.2604  -75.6610 H         1 UNK         0.1079 
     72 H72       -80.5650   30.1945  -74.4251 H         1 UNK         0.0837 
     73 H73       -79.9474   29.8813  -76.0120 H         1 UNK         0.0837 
     74 H74       -78.5743   30.6609  -72.3338 H         1 UNK         0.0685 
     75 H75       -79.4368   29.1420  -72.2755 H         1 UNK         0.0685 
     76 H76       -77.8231   26.9776  -72.5999 H         1 UNK         0.1434 
     77 H77       -74.3990   27.2067  -70.0261 H         1 UNK         0.1329 
     78 H78       -76.6438   30.7468  -70.9404 H         1 UNK         0.1335 
     79 H79       -74.9757   30.7823  -69.1469 H         1 UNK         0.0680 
     80 H80       -74.1999   29.3071  -68.6360 H         1 UNK         0.0680 
     81 H81       -72.9461   32.4204  -71.6440 H         1 UNK         0.1032 
     82 H82       -74.5681   31.9085  -71.3146 H         1 UNK         0.1032 
     83 H83       -74.3438   30.0657  -73.0042 H         1 UNK         0.0461 
     84 H84       -74.5533   32.4721  -76.0145 H         1 UNK         0.3453 
     85 H85       -73.3022   31.2949  -75.6871 H         1 UNK         0.3453 
     86 H86       -72.4700   29.4324  -73.8822 H         1 UNK         0.2984 
     87 H87       -69.5960   31.0128  -75.0956 H         1 UNK         0.0554 
     88 H88       -68.1958   29.4741  -73.7318 H         1 UNK         0.0847 
     89 H89       -69.5205   29.2482  -72.5868 H         1 UNK         0.0847 
     90 H90       -68.7530   30.8199  -72.7530 H         1 UNK         0.0847 
     91 H91       -70.2304   28.2419  -74.7434 H         1 UNK         0.3141 
     92 H92       -71.2685   27.7436  -77.8962 H         1 UNK         0.0743 
     93 H93       -71.2484   26.4565  -75.1038 H         1 UNK         0.0784 
     94 H94       -71.2115   25.6096  -76.6406 H         1 UNK         0.0784 
     95 H95       -69.8509   26.6090  -76.1735 H         1 UNK         0.0784 
     96 H96       -73.4659   27.3122  -77.7633 H         1 UNK         0.3213 
     97 H97       -75.9183   27.6311  -75.1934 H         1 UNK         0.0855 
     98 H98       -75.7680   29.6371  -76.6333 H         1 UNK         0.0814 
     99 H99       -77.0222   28.5524  -77.2090 H         1 UNK         0.0814 
    100 H100      -75.4785   28.6462  -78.0547 H         1 UNK         0.0814 
    101 H101      -76.2358   25.6347  -75.9976 H         1 UNK         0.3105 
    102 H102      -76.7585   24.2278  -78.5768 H         1 UNK         0.0547 
    103 H103      -74.7683   23.7175  -79.8486 H         1 UNK         0.0837 
    104 H104      -73.8574   23.2930  -78.4135 H         1 UNK         0.0837 
    105 H105      -75.2038   22.2813  -78.9394 H         1 UNK         0.0837 
    106 H106      -77.1921   23.3071  -76.6186 H         1 UNK         0.3020 
    107 H107      -75.8403   21.6525  -74.3783 H         1 UNK         0.1245 
    108 H108      -74.0770   22.9056  -73.2329 H         1 UNK         0.0781 
    109 H109      -75.4910   22.8692  -72.2357 H         1 UNK         0.0781 
    110 H110      -75.2890   25.0245  -70.6748 H         1 UNK         0.0836 
    111 H111      -76.8397   24.9113  -71.4749 H         1 UNK         0.0836 
    112 H112      -77.7119   23.8948  -74.6656 H         1 UNK         0.3022 
    113 H113      -80.1745   22.1442  -72.6850 H         1 UNK         0.0747 
    114 H114      -80.5816   24.4344  -71.9523 H         1 UNK         0.0793 
    115 H115      -79.0530   23.8901  -71.2963 H         1 UNK         0.0793 
    116 H116      -79.0716   24.9945  -72.6667 H         1 UNK         0.0793 
    117 H117      -80.2414   24.2648  -74.6978 H         1 UNK         0.3047 
    118 H118      -81.3951   22.1852  -77.2820 H         1 UNK         0.0822 
    119 H119      -83.5974   23.3397  -77.1873 H         1 UNK         0.0807 
    120 H120      -83.3245   23.7653  -75.4972 H         1 UNK         0.0807 
    121 H121      -83.5073   22.0819  -75.9662 H         1 UNK         0.0807 
    122 H122      -81.6462   25.0146  -76.8544 H         1 UNK         0.2946 
    123 H123      -78.3321   25.8937  -77.6728 H         1 UNK         0.1144 
    124 H124      -79.1616   25.3314  -79.9643 H         1 UNK         0.0793 
    125 H125      -79.2695   27.0538  -79.6458 H         1 UNK         0.0793 
    126 H126      -80.7206   26.0512  -79.5857 H         1 UNK         0.0793 
    127 H127      -80.6295   27.5169  -77.5478 H         1 UNK         0.2896 
@<TRIPOS>BOND
     1    1    2 1    
     2    1   67 1    
     3    1   68 1    
     4    1   69 1    
     5    2    3 2    
     6    2    4 am   BACKBONE|DICT|INTERRES
     7    4    5 1    
     8    4   70 1    
     9    5    6 1    
    10    5   65 1    
    11    5   71 1    
    12    6    7 1    
    13    6   72 1    
    14    6   73 1    
    15    7    8 1    
    16    8    9 1    
    17    8   74 1    
    18    8   75 1    
    19    9   10 ar   
    20    9   14 ar   
    21   10   11 ar   
    22   10   76 1    
    23   11   12 ar   
    24   11   48 1    
    25   12   13 ar   
    26   12   77 1    
    27   13   14 ar   
    28   13   15 1    
    29   14   78 1    
    30   15   16 1    
    31   15   79 1    
    32   15   80 1    
    33   16   17 1    
    34   17   18 1    
    35   17   81 1    
    36   17   82 1    
    37   18   19 1    
    38   18   22 1    
    39   18   83 1    
    40   19   20 am   BACKBONE|DICT|INTERRES
    41   19   21 2    
    42   20   84 1    
    43   20   85 1    
    44   22   23 am   BACKBONE|DICT|INTERRES
    45   22   86 1    
    46   23   24 2    
    47   23   25 1    
    48   25   26 1    
    49   25   27 1    
    50   25   87 1    
    51   26   88 1    
    52   26   89 1    
    53   26   90 1    
    54   27   28 am   BACKBONE|DICT|INTERRES
    55   27   91 1    
    56   28   29 2    
    57   28   30 1    
    58   30   31 1    
    59   30   32 1    
    60   30   92 1    
    61   31   93 1    
    62   31   94 1    
    63   31   95 1    
    64   32   33 am   BACKBONE|DICT|INTERRES
    65   32   96 1    
    66   33   34 2    
    67   33   35 1    
    68   35   36 1    
    69   35   37 1    
    70   35   97 1    
    71   36   98 1    
    72   36   99 1    
    73   36  100 1    
    74   37   38 am   BACKBONE|DICT|INTERRES
    75   37  101 1    
    76   38   39 2    
    77   38   40 1    
    78   40   41 1    
    79   40   42 1    
    80   40  102 1    
    81   41  103 1    
    82   41  104 1    
    83   41  105 1    
    84   42   43 am   BACKBONE|DICT|INTERRES
    85   42  106 1    
    86   43   44 2    
    87   43   45 1    
    88   45   46 1    
    89   45   49 1    
    90   45  107 1    
    91   46   47 1    
    92   46  108 1    
    93   46  109 1    
    94   47   48 1    
    95   48  110 1    
    96   48  111 1    
    97   49   50 am   BACKBONE|DICT|INTERRES
    98   49  112 1    
    99   50   51 2    
   100   50   52 1    
   101   52   53 1    
   102   52   54 1    
   103   52  113 1    
   104   53  114 1    
   105   53  115 1    
   106   53  116 1    
   107   54   55 am   BACKBONE|DICT|INTERRES
   108   54  117 1    
   109   55   56 2    
   110   55   57 1    
   111   57   58 1    
   112   57   59 1    
   113   57  118 1    
   114   58  119 1    
   115   58  120 1    
   116   58  121 1    
   117   59   60 am   BACKBONE|DICT|INTERRES
   118   59  122 1    
   119   60   61 2    
   120   60   62 1    
   121   62   63 1    
   122   62   64 1    
   123   62  123 1    
   124   63  124 1    
   125   63  125 1    
   126   63  126 1    
   127   64   65 am   BACKBONE|DICT|INTERRES
   128   64  127 1    
   129   65   66 2    
@<TRIPOS>SUBSTRUCTURE
     1 UNK         1 GROUP             0       ****    0 ROOT    
