@<TRIPOS>MOLECULE
3R135
127   129    1
SMALL
USER_CHARGES


@<TRIPOS>ATOM
      1 CA        -85.6293   27.5670  -75.9854 C.3       0 UNK        -0.1998 
      2 C         -84.9578   27.1121  -74.6923 C.2       0 UNK         0.4909 
      3 O         -85.5341   26.3067  -73.9641 O.2       0 UNK        -0.5240 
      4 N         -83.7508   27.5911  -74.3570 N.am      1 UNK        -0.4739 
      5 CA        -82.9117   28.5196  -75.1301 C.3       1 UNK         0.0864 
      6 C6        -81.8757   29.2262  -74.2192 C.3       11 UNK        -0.0881 
      7 S7        -80.6987   28.0951  -73.3940 S.3       11 UNK        -0.2682 
      8 C8        -80.2341   29.0866  -71.9395 C.3       11 UNK         0.0289 
      9 C9        -78.8171   28.7792  -71.4746 C.ar      11 UNK        -0.0687 
     10 C10       -78.5205   27.5526  -70.8725 C.ar      11 UNK        -0.0823 
     11 C11       -77.2235   27.2742  -70.4286 C.ar      11 UNK        -0.0830 
     12 C12       -76.2183   28.2305  -70.5925 C.ar      11 UNK        -0.1021 
     13 C13       -76.5044   29.4646  -71.1821 C.ar      11 UNK        -0.0753 
     14 C14       -77.8040   29.7324  -71.6241 C.ar      11 UNK        -0.0933 
     15 C15       -75.4144   30.5167  -71.3118 C.3       11 UNK         0.0166 
     16 S16       -74.9027   30.7315  -73.0403 S.3       11 UNK        -0.2615 
     17 C17       -73.3402   31.6541  -72.8312 C.3       11 UNK        -0.0865 
     18 CA        -72.0759   30.8090  -73.1402 C.3       10 UNK         0.0862 
     19 C         -71.7187   29.8296  -71.9869 C.2       10 UNK         0.5551 
     20 N         -71.8445   28.5199  -72.1534 N.am      10 UNK        -0.7319 
     21 O         -71.3014   30.2733  -70.9200 O.2       10 UNK        -0.5018 
     22 N         -72.1504   30.2057  -74.4791 N.am      10 UNK        -0.4509 
     23 C         -71.0984   29.9505  -75.2630 C.2       10 UNK         0.4899 
     24 O         -69.9257   30.1227  -74.9254 O.2       10 UNK        -0.4839 
     25 CA        -71.4388   29.4628  -76.6790 C.3       9 UNK         0.0222 
     26 CB        -70.4014   29.9026  -77.7350 C.3       9 UNK        -0.1966 
     27 N         -71.6849   28.0197  -76.7174 N.am      9 UNK        -0.4218 
     28 C         -70.8028   27.0170  -76.5765 C.2       9 UNK         0.5020 
     29 O         -69.5996   27.1837  -76.3720 O.2       9 UNK        -0.5274 
     30 CA        -71.3267   25.5684  -76.6963 C.3       8 UNK         0.0270 
     31 CB        -71.0454   24.7791  -75.4057 C.3       8 UNK        -0.1976 
     32 N         -72.7526   25.4599  -77.0198 N.am      8 UNK        -0.4313 
     33 C         -73.3162   25.7545  -78.1995 C.2       8 UNK         0.5041 
     34 O         -72.6767   26.0703  -79.2031 O.2       8 UNK        -0.5577 
     35 CA        -74.8561   25.7540  -78.2538 C.3       7 UNK         0.0284 
     36 CB        -75.3849   24.3750  -78.6769 C.3       7 UNK        -0.1958 
     37 N         -75.4853   26.1570  -76.9897 N.am      7 UNK        -0.4454 
     38 C         -75.3289   27.3508  -76.3976 C.2       7 UNK         0.5089 
     39 O         -74.6504   28.2646  -76.8669 O.2       7 UNK        -0.5125 
     40 CA        -75.9848   27.5334  -75.0216 C.3       6 UNK         0.0408 
     41 CB        -77.4798   27.8544  -75.1463 C.3       6 UNK        -0.1791 
     42 N         -75.7837   26.3622  -74.1678 N.am      6 UNK        -0.4762 
     43 C         -74.6133   26.0607  -73.5875 C.2       6 UNK         0.5007 
     44 O         -73.6138   26.7764  -73.6667 O.2       6 UNK        -0.5032 
     45 CA        -74.5118   24.7099  -72.8477 C.3       5 UNK         0.0783 
     46 C46       -74.8445   24.8288  -71.3353 C.3       11 UNK        -0.0857 
     47 S47       -76.6188   24.6216  -70.9334 S.3       11 UNK        -0.2512 
     48 C48       -76.9216   25.9548  -69.7379 C.3       11 UNK         0.0225 
     49 N         -75.2828   23.6472  -73.4988 N.am      5 UNK        -0.4615 
     50 C         -75.0430   23.1374  -74.7113 C.2       4 UNK         0.5053 
     51 O         -74.0855   23.4604  -75.4105 O.2       4 UNK        -0.5105 
     52 CA        -76.0803   22.1369  -75.2515 C.3       4 UNK         0.0263 
     53 CB        -75.7542   20.7130  -74.7746 C.3       4 UNK        -0.1981 
     54 N         -77.4613   22.4771  -74.8841 N.am      4 UNK        -0.4224 
     55 C         -78.0793   23.6148  -75.2312 C.2       3 UNK         0.4895 
     56 O         -77.5459   24.5035  -75.8989 O.2       3 UNK        -0.5091 
     57 CA        -79.4998   23.8194  -74.6806 C.3       3 UNK         0.0250 
     58 CB        -79.4429   24.3382  -73.2345 C.3       3 UNK        -0.1996 
     59 N         -80.2641   24.7750  -75.4819 N.am      3 UNK        -0.4254 
     60 C         -80.7498   24.5398  -76.7091 C.2       2 UNK         0.5004 
     61 O         -80.6391   23.4591  -77.2910 O.2       2 UNK        -0.5226 
     62 CA        -81.5170   25.6965  -77.3744 C.3       2 UNK         0.0269 
     63 CB        -82.5619   25.2139  -78.3992 C.3       2 UNK        -0.1926 
     64 N         -82.1753   26.5198  -76.3585 N.am      2 UNK        -0.4687 
     65 C         -82.2294   27.8571  -76.3492 C.2       1 UNK         0.5165 
     66 O         -81.7715   28.5652  -77.2465 O.2       1 UNK        -0.5079 
     67 H67       -86.6244   27.1304  -76.0700 H         1 UNK         0.0900 
     68 H68       -85.7450   28.6499  -76.0085 H         1 UNK         0.0900 
     69 H69       -85.0578   27.2518  -76.8576 H         1 UNK         0.0900 
     70 H70       -83.3358   27.2789  -73.4900 H         1 UNK         0.2959 
     71 H71       -83.5561   29.3025  -75.5340 H         1 UNK         0.1079 
     72 H72       -81.3042   29.9624  -74.7883 H         1 UNK         0.0837 
     73 H73       -82.4076   29.7962  -73.4554 H         1 UNK         0.0837 
     74 H74       -80.3255   30.1477  -72.1769 H         1 UNK         0.0685 
     75 H75       -80.9390   28.8903  -71.1305 H         1 UNK         0.0685 
     76 H76       -79.3018   26.8149  -70.7491 H         1 UNK         0.1434 
     77 H77       -75.2156   28.0214  -70.2459 H         1 UNK         0.1329 
     78 H78       -78.0229   30.6874  -72.0820 H         1 UNK         0.1335 
     79 H79       -75.7732   31.4694  -70.9196 H         1 UNK         0.0680 
     80 H80       -74.5477   30.2391  -70.7097 H         1 UNK         0.0680 
     81 H81       -73.3734   32.5065  -73.5113 H         1 UNK         0.1032 
     82 H82       -73.2855   32.0904  -71.8317 H         1 UNK         0.1032 
     83 H83       -71.2468   31.5196  -73.1630 H         1 UNK         0.0461 
     84 H84       -71.5920   27.9069  -71.3963 H         1 UNK         0.3453 
     85 H85       -72.2808   28.1344  -72.9830 H         1 UNK         0.3453 
     86 H86       -73.0817   29.9978  -74.8115 H         1 UNK         0.2984 
     87 H87       -72.3838   29.9300  -76.9612 H         1 UNK         0.0554 
     88 H88       -70.3179   30.9896  -77.7628 H         1 UNK         0.0847 
     89 H89       -70.6885   29.5733  -78.7335 H         1 UNK         0.0847 
     90 H90       -69.4053   29.5117  -77.5267 H         1 UNK         0.0847 
     91 H91       -72.6603   27.7710  -76.8457 H         1 UNK         0.3141 
     92 H92       -70.7668   25.0979  -77.5070 H         1 UNK         0.0743 
     93 H93       -69.9819   24.7855  -75.1636 H         1 UNK         0.0784 
     94 H94       -71.5753   25.2025  -74.5525 H         1 UNK         0.0784 
     95 H95       -71.3449   23.7356  -75.5044 H         1 UNK         0.0784 
     96 H96       -73.3547   25.1004  -76.2848 H         1 UNK         0.3213 
     97 H97       -75.1570   26.4814  -79.0107 H         1 UNK         0.0855 
     98 H98       -75.0769   23.5958  -77.9804 H         1 UNK         0.0814 
     99 H99       -75.0045   24.0988  -79.6611 H         1 UNK         0.0814 
    100 H100      -76.4736   24.3645  -78.7335 H         1 UNK         0.0814 
    101 H101      -76.1058   25.4813  -76.5467 H         1 UNK         0.3105 
    102 H102      -75.5070   28.3871  -74.5414 H         1 UNK         0.0547 
    103 H103      -77.6373   28.7497  -75.7486 H         1 UNK         0.0837 
    104 H104      -78.0434   27.0455  -75.6099 H         1 UNK         0.0837 
    105 H105      -77.9099   28.0471  -74.1651 H         1 UNK         0.0837 
    106 H106      -76.5443   25.7008  -74.1080 H         1 UNK         0.3020 
    107 H107      -73.4606   24.4211  -72.9214 H         1 UNK         0.1245 
    108 H108      -74.4669   25.7661  -70.9226 H         1 UNK         0.0781 
    109 H109      -74.3107   24.0451  -70.7958 H         1 UNK         0.0781 
    110 H110      -76.0702   26.0514  -69.0622 H         1 UNK         0.0836 
    111 H111      -77.7695   25.6733  -69.1116 H         1 UNK         0.0836 
    112 H112      -76.0948   23.3303  -72.9890 H         1 UNK         0.3022 
    113 H113      -76.0174   22.1525  -76.3409 H         1 UNK         0.0747 
    114 H114      -76.4251   19.9803  -75.2236 H         1 UNK         0.0793 
    115 H115      -74.7377   20.4322  -75.0543 H         1 UNK         0.0793 
    116 H116      -75.8311   20.6203  -73.6904 H         1 UNK         0.0793 
    117 H117      -77.9618   21.8000  -74.3260 H         1 UNK         0.3047 
    118 H118      -80.0237   22.8612  -74.6959 H         1 UNK         0.0822 
    119 H119      -78.9538   23.6180  -72.5781 H         1 UNK         0.0807 
    120 H120      -80.4420   24.5076  -72.8325 H         1 UNK         0.0807 
    121 H121      -78.8920   25.2775  -73.1609 H         1 UNK         0.0807 
    122 H122      -80.3658   25.7034  -75.0981 H         1 UNK         0.2946 
    123 H123      -80.7657   26.2900  -77.9008 H         1 UNK         0.1144 
    124 H124      -83.0729   26.0543  -78.8692 H         1 UNK         0.0793 
    125 H125      -83.3171   24.5797  -77.9336 H         1 UNK         0.0793 
    126 H126      -82.0935   24.6360  -79.1971 H         1 UNK         0.0793 
    127 H127      -82.5786   26.0236  -75.5748 H         1 UNK         0.2896 
@<TRIPOS>BOND
     1    1    2 1    
     2    1   67 1    
     3    1   68 1    
     4    1   69 1    
     5    2    3 2    
     6    2    4 am   BACKBONE|DICT|INTERRES
     7    4    5 1    
     8    4   70 1    
     9    5    6 1    
    10    5   65 1    
    11    5   71 1    
    12    6    7 1    
    13    6   72 1    
    14    6   73 1    
    15    7    8 1    
    16    8    9 1    
    17    8   74 1    
    18    8   75 1    
    19    9   10 ar   
    20    9   14 ar   
    21   10   11 ar   
    22   10   76 1    
    23   11   12 ar   
    24   11   48 1    
    25   12   13 ar   
    26   12   77 1    
    27   13   14 ar   
    28   13   15 1    
    29   14   78 1    
    30   15   16 1    
    31   15   79 1    
    32   15   80 1    
    33   16   17 1    
    34   17   18 1    
    35   17   81 1    
    36   17   82 1    
    37   18   19 1    
    38   18   22 1    
    39   18   83 1    
    40   19   20 am   BACKBONE|DICT|INTERRES
    41   19   21 2    
    42   20   84 1    
    43   20   85 1    
    44   22   23 am   BACKBONE|DICT|INTERRES
    45   22   86 1    
    46   23   24 2    
    47   23   25 1    
    48   25   26 1    
    49   25   27 1    
    50   25   87 1    
    51   26   88 1    
    52   26   89 1    
    53   26   90 1    
    54   27   28 am   BACKBONE|DICT|INTERRES
    55   27   91 1    
    56   28   29 2    
    57   28   30 1    
    58   30   31 1    
    59   30   32 1    
    60   30   92 1    
    61   31   93 1    
    62   31   94 1    
    63   31   95 1    
    64   32   33 am   BACKBONE|DICT|INTERRES
    65   32   96 1    
    66   33   34 2    
    67   33   35 1    
    68   35   36 1    
    69   35   37 1    
    70   35   97 1    
    71   36   98 1    
    72   36   99 1    
    73   36  100 1    
    74   37   38 am   BACKBONE|DICT|INTERRES
    75   37  101 1    
    76   38   39 2    
    77   38   40 1    
    78   40   41 1    
    79   40   42 1    
    80   40  102 1    
    81   41  103 1    
    82   41  104 1    
    83   41  105 1    
    84   42   43 am   BACKBONE|DICT|INTERRES
    85   42  106 1    
    86   43   44 2    
    87   43   45 1    
    88   45   46 1    
    89   45   49 1    
    90   45  107 1    
    91   46   47 1    
    92   46  108 1    
    93   46  109 1    
    94   47   48 1    
    95   48  110 1    
    96   48  111 1    
    97   49   50 am   BACKBONE|DICT|INTERRES
    98   49  112 1    
    99   50   51 2    
   100   50   52 1    
   101   52   53 1    
   102   52   54 1    
   103   52  113 1    
   104   53  114 1    
   105   53  115 1    
   106   53  116 1    
   107   54   55 am   BACKBONE|DICT|INTERRES
   108   54  117 1    
   109   55   56 2    
   110   55   57 1    
   111   57   58 1    
   112   57   59 1    
   113   57  118 1    
   114   58  119 1    
   115   58  120 1    
   116   58  121 1    
   117   59   60 am   BACKBONE|DICT|INTERRES
   118   59  122 1    
   119   60   61 2    
   120   60   62 1    
   121   62   63 1    
   122   62   64 1    
   123   62  123 1    
   124   63  124 1    
   125   63  125 1    
   126   63  126 1    
   127   64   65 am   BACKBONE|DICT|INTERRES
   128   64  127 1    
   129   65   66 2    
@<TRIPOS>SUBSTRUCTURE
     1 UNK         1 GROUP             0       ****    0 ROOT    
