@<TRIPOS>MOLECULE
3R135
127   129    1
SMALL
USER_CHARGES


@<TRIPOS>ATOM
      1 CA        -79.5226   31.4703  -75.3490 C.3       0 UNK        -0.1998 
      2 C         -79.4802   30.1283  -74.6344 C.2       0 UNK         0.4909 
      3 O         -78.4996   29.3984  -74.7637 O.2       0 UNK        -0.5240 
      4 N         -80.5362   29.8058  -73.8778 N.am      1 UNK        -0.4739 
      5 CA        -80.7017   28.5250  -73.1837 C.3       1 UNK         0.0864 
      6 C6        -81.6613   28.6771  -71.9745 C.3       11 UNK        -0.0881 
      7 S7        -81.3306   27.4600  -70.6552 S.3       11 UNK        -0.2682 
      8 C8        -80.2495   28.4091  -69.5368 C.3       11 UNK         0.0289 
      9 C9        -78.8792   28.6560  -70.1519 C.ar      11 UNK        -0.0687 
     10 C10       -77.9415   27.6214  -70.2021 C.ar      11 UNK        -0.0823 
     11 C11       -76.6836   27.8267  -70.7804 C.ar      11 UNK        -0.0830 
     12 C12       -76.3689   29.0928  -71.2822 C.ar      11 UNK        -0.1021 
     13 C13       -77.2903   30.1466  -71.2359 C.ar      11 UNK        -0.0753 
     14 C14       -78.5476   29.9122  -70.6695 C.ar      11 UNK        -0.0933 
     15 C15       -76.9857   31.5465  -71.7806 C.3       11 UNK         0.0166 
     16 S16       -75.2493   31.8590  -72.2818 S.3       11 UNK        -0.2615 
     17 C17       -75.4066   32.1706  -74.0757 C.3       11 UNK        -0.0865 
     18 CA        -75.1672   30.9077  -74.9520 C.3       10 UNK         0.0862 
     19 C         -75.5790   31.1278  -76.4390 C.2       10 UNK         0.5551 
     20 N         -74.9618   30.4545  -77.4033 N.am      10 UNK        -0.7319 
     21 O         -76.4624   31.9277  -76.7363 O.2       10 UNK        -0.5018 
     22 N         -73.7820   30.4141  -74.8392 N.am      10 UNK        -0.4509 
     23 C         -73.4183   29.2588  -74.2769 C.2       10 UNK         0.4899 
     24 O         -74.1891   28.4949  -73.7018 O.2       10 UNK        -0.4839 
     25 CA        -71.9353   28.8908  -74.3479 C.3       9 UNK         0.0222 
     26 CB        -71.2171   29.2894  -73.0443 C.3       9 UNK        -0.1966 
     27 N         -71.8374   27.4507  -74.5776 N.am      9 UNK        -0.4218 
     28 C         -70.7442   26.7971  -74.9901 C.2       9 UNK         0.5020 
     29 O         -69.6530   27.3347  -75.1853 O.2       9 UNK        -0.5274 
     30 CA        -70.8975   25.2925  -75.2560 C.3       8 UNK         0.0270 
     31 CB        -71.0549   24.5045  -73.9438 C.3       8 UNK        -0.1976 
     32 N         -72.0417   25.0447  -76.1336 N.am      8 UNK        -0.4313 
     33 C         -71.9775   25.0400  -77.4730 C.2       8 UNK         0.5041 
     34 O         -70.9242   25.1307  -78.1058 O.2       8 UNK        -0.5577 
     35 CA        -73.3000   24.9140  -78.2549 C.3       7 UNK         0.0284 
     36 CB        -73.5748   23.4428  -78.6060 C.3       7 UNK        -0.1958 
     37 N         -74.4652   25.4612  -77.5587 N.am      7 UNK        -0.4454 
     38 C         -74.6225   26.7390  -77.1847 C.2       7 UNK         0.5089 
     39 O         -73.8273   27.6432  -77.4439 O.2       7 UNK        -0.5125 
     40 CA        -75.8666   27.0502  -76.3388 C.3       6 UNK         0.0408 
     41 CB        -77.0613   27.3616  -77.2521 C.3       6 UNK        -0.1791 
     42 N         -76.2346   25.9875  -75.3969 N.am      6 UNK        -0.4762 
     43 C         -75.4406   25.3992  -74.4865 C.2       6 UNK         0.5007 
     44 O         -74.2340   25.6158  -74.3708 O.2       6 UNK        -0.5032 
     45 CA        -76.1041   24.3252  -73.6084 C.3       5 UNK         0.0783 
     46 C46       -77.0452   24.9461  -72.5382 C.3       11 UNK        -0.0857 
     47 S47       -76.2633   25.0177  -70.8940 S.3       11 UNK        -0.2512 
     48 C48       -75.6221   26.7271  -70.8502 C.3       11 UNK         0.0225 
     49 N         -76.7994   23.3658  -74.4662 N.am      5 UNK        -0.4615 
     50 C         -76.2028   22.3606  -75.1208 C.2       4 UNK         0.5053 
     51 O         -75.0143   22.0688  -74.9898 O.2       4 UNK        -0.5105 
     52 CA        -77.0709   21.5435  -76.0951 C.3       4 UNK         0.0263 
     53 CB        -77.6118   20.2824  -75.4025 C.3       4 UNK        -0.1981 
     54 N         -78.1911   22.3043  -76.6555 N.am      4 UNK        -0.4224 
     55 C         -78.0625   23.3347  -77.5033 C.2       3 UNK         0.4895 
     56 O         -76.9825   23.7359  -77.9389 O.2       3 UNK        -0.5091 
     57 CA        -79.3588   24.0722  -77.8878 C.3       3 UNK         0.0250 
     58 CB        -80.0500   23.3650  -79.0645 C.3       3 UNK        -0.1996 
     59 N         -80.3161   24.2421  -76.7837 N.am      3 UNK        -0.4254 
     60 C         -80.0421   24.8371  -75.6138 C.2       2 UNK         0.5004 
     61 O         -78.9175   25.2215  -75.2900 O.2       2 UNK        -0.5226 
     62 CA        -81.1940   24.9820  -74.6087 C.3       2 UNK         0.0269 
     63 CB        -81.2810   23.7336  -73.7158 C.3       2 UNK        -0.1926 
     64 N         -80.9810   26.1572  -73.7608 N.am      2 UNK        -0.4687 
     65 C         -81.1606   27.4215  -74.1629 C.2       1 UNK         0.5165 
     66 O         -81.6829   27.7218  -75.2410 O.2       1 UNK        -0.5079 
     67 H67       -79.3425   31.3317  -76.4148 H         1 UNK         0.0900 
     68 H68       -78.7478   32.1286  -74.9586 H         1 UNK         0.0900 
     69 H69       -80.4849   31.9677  -75.2295 H         1 UNK         0.0900 
     70 H70       -81.3312   30.4275  -73.8458 H         1 UNK         0.2959 
     71 H71       -79.7155   28.2325  -72.8148 H         1 UNK         0.1079 
     72 H72       -81.5682   29.6730  -71.5383 H         1 UNK         0.0837 
     73 H73       -82.7056   28.5944  -72.2827 H         1 UNK         0.0837 
     74 H74       -80.1312   27.8515  -68.6066 H         1 UNK         0.0685 
     75 H75       -80.7329   29.3493  -69.2670 H         1 UNK         0.0685 
     76 H76       -78.2031   26.6558  -69.7926 H         1 UNK         0.1434 
     77 H77       -75.3903   29.2494  -71.7068 H         1 UNK         0.1329 
     78 H78       -79.2732   30.7134  -70.6325 H         1 UNK         0.1335 
     79 H79       -77.2413   32.2799  -71.0144 H         1 UNK         0.0680 
     80 H80       -77.6582   31.7370  -72.6168 H         1 UNK         0.0680 
     81 H81       -76.3898   32.6024  -74.2661 H         1 UNK         0.1032 
     82 H82       -74.6932   32.9500  -74.3480 H         1 UNK         0.1032 
     83 H83       -75.8574   30.1409  -74.5964 H         1 UNK         0.0461 
     84 H84       -75.2310   30.6211  -78.3594 H         1 UNK         0.3453 
     85 H85       -74.2886   29.7293  -77.1929 H         1 UNK         0.3453 
     86 H86       -73.0828   30.9772  -75.3022 H         1 UNK         0.2984 
     87 H87       -71.4794   29.4117  -75.1925 H         1 UNK         0.0554 
     88 H88       -70.1486   29.0803  -73.0925 H         1 UNK         0.0847 
     89 H89       -71.6248   28.7561  -72.1844 H         1 UNK         0.0847 
     90 H90       -71.3282   30.3566  -72.8483 H         1 UNK         0.0847 
     91 H91       -72.7101   26.9416  -74.4447 H         1 UNK         0.3141 
     92 H92       -69.9843   24.9409  -75.7414 H         1 UNK         0.0743 
     93 H93       -70.1862   24.6483  -73.3001 H         1 UNK         0.0784 
     94 H94       -71.1437   23.4348  -74.1343 H         1 UNK         0.0784 
     95 H95       -71.9324   24.8154  -73.3765 H         1 UNK         0.0784 
     96 H96       -72.9540   25.0299  -75.6854 H         1 UNK         0.3213 
     97 H97       -73.1825   25.4746  -79.1846 H         1 UNK         0.0855 
     98 H98       -73.7436   22.8406  -77.7119 H         1 UNK         0.0814 
     99 H99       -72.7327   23.0039  -79.1428 H         1 UNK         0.0814 
    100 H100      -74.4525   23.3445  -79.2454 H         1 UNK         0.0814 
    101 H101      -75.2191   24.8141  -77.3531 H         1 UNK         0.3105 
    102 H102      -75.6621   27.9411  -75.7476 H         1 UNK         0.0547 
    103 H103      -77.9617   27.5735  -76.6754 H         1 UNK         0.0837 
    104 H104      -76.8597   28.2369  -77.8703 H         1 UNK         0.0837 
    105 H105      -77.2792   26.5324  -77.9240 H         1 UNK         0.0837 
    106 H106      -77.2189   25.7196  -75.4004 H         1 UNK         0.3020 
    107 H107      -75.2996   23.7864  -73.1012 H         1 UNK         0.1245 
    108 H108      -77.9386   24.3313  -72.4188 H         1 UNK         0.0781 
    109 H109      -77.4192   25.9324  -72.8231 H         1 UNK         0.0781 
    110 H110      -74.9718   26.8272  -69.9805 H         1 UNK         0.0836 
    111 H111      -74.9867   26.8742  -71.7250 H         1 UNK         0.0836 
    112 H112      -77.7569   23.5984  -74.6973 H         1 UNK         0.3022 
    113 H113      -76.4288   21.2324  -76.9222 H         1 UNK         0.0747 
    114 H114      -78.1622   19.6508  -76.1002 H         1 UNK         0.0793 
    115 H115      -76.7969   19.6803  -74.9976 H         1 UNK         0.0793 
    116 H116      -78.2769   20.5293  -74.5740 H         1 UNK         0.0793 
    117 H117      -79.1187   22.0466  -76.3514 H         1 UNK         0.3047 
    118 H118      -79.0754   25.0721  -78.2195 H         1 UNK         0.0822 
    119 H119      -80.9026   23.9391  -79.4279 H         1 UNK         0.0807 
    120 H120      -80.4062   22.3717  -78.7886 H         1 UNK         0.0807 
    121 H121      -79.3638   23.2435  -79.9042 H         1 UNK         0.0807 
    122 H122      -81.2615   23.9329  -76.9604 H         1 UNK         0.2946 
    123 H123      -82.1330   25.1017  -75.1542 H         1 UNK         0.1144 
    124 H124      -82.0937   23.8194  -72.9942 H         1 UNK         0.0793 
    125 H125      -80.3570   23.5670  -73.1603 H         1 UNK         0.0793 
    126 H126      -81.4708   22.8383  -74.3093 H         1 UNK         0.0793 
    127 H127      -80.5570   25.9939  -72.8588 H         1 UNK         0.2896 
@<TRIPOS>BOND
     1    1    2 1    
     2    1   67 1    
     3    1   68 1    
     4    1   69 1    
     5    2    3 2    
     6    2    4 am   BACKBONE|DICT|INTERRES
     7    4    5 1    
     8    4   70 1    
     9    5    6 1    
    10    5   65 1    
    11    5   71 1    
    12    6    7 1    
    13    6   72 1    
    14    6   73 1    
    15    7    8 1    
    16    8    9 1    
    17    8   74 1    
    18    8   75 1    
    19    9   10 ar   
    20    9   14 ar   
    21   10   11 ar   
    22   10   76 1    
    23   11   12 ar   
    24   11   48 1    
    25   12   13 ar   
    26   12   77 1    
    27   13   14 ar   
    28   13   15 1    
    29   14   78 1    
    30   15   16 1    
    31   15   79 1    
    32   15   80 1    
    33   16   17 1    
    34   17   18 1    
    35   17   81 1    
    36   17   82 1    
    37   18   19 1    
    38   18   22 1    
    39   18   83 1    
    40   19   20 am   BACKBONE|DICT|INTERRES
    41   19   21 2    
    42   20   84 1    
    43   20   85 1    
    44   22   23 am   BACKBONE|DICT|INTERRES
    45   22   86 1    
    46   23   24 2    
    47   23   25 1    
    48   25   26 1    
    49   25   27 1    
    50   25   87 1    
    51   26   88 1    
    52   26   89 1    
    53   26   90 1    
    54   27   28 am   BACKBONE|DICT|INTERRES
    55   27   91 1    
    56   28   29 2    
    57   28   30 1    
    58   30   31 1    
    59   30   32 1    
    60   30   92 1    
    61   31   93 1    
    62   31   94 1    
    63   31   95 1    
    64   32   33 am   BACKBONE|DICT|INTERRES
    65   32   96 1    
    66   33   34 2    
    67   33   35 1    
    68   35   36 1    
    69   35   37 1    
    70   35   97 1    
    71   36   98 1    
    72   36   99 1    
    73   36  100 1    
    74   37   38 am   BACKBONE|DICT|INTERRES
    75   37  101 1    
    76   38   39 2    
    77   38   40 1    
    78   40   41 1    
    79   40   42 1    
    80   40  102 1    
    81   41  103 1    
    82   41  104 1    
    83   41  105 1    
    84   42   43 am   BACKBONE|DICT|INTERRES
    85   42  106 1    
    86   43   44 2    
    87   43   45 1    
    88   45   46 1    
    89   45   49 1    
    90   45  107 1    
    91   46   47 1    
    92   46  108 1    
    93   46  109 1    
    94   47   48 1    
    95   48  110 1    
    96   48  111 1    
    97   49   50 am   BACKBONE|DICT|INTERRES
    98   49  112 1    
    99   50   51 2    
   100   50   52 1    
   101   52   53 1    
   102   52   54 1    
   103   52  113 1    
   104   53  114 1    
   105   53  115 1    
   106   53  116 1    
   107   54   55 am   BACKBONE|DICT|INTERRES
   108   54  117 1    
   109   55   56 2    
   110   55   57 1    
   111   57   58 1    
   112   57   59 1    
   113   57  118 1    
   114   58  119 1    
   115   58  120 1    
   116   58  121 1    
   117   59   60 am   BACKBONE|DICT|INTERRES
   118   59  122 1    
   119   60   61 2    
   120   60   62 1    
   121   62   63 1    
   122   62   64 1    
   123   62  123 1    
   124   63  124 1    
   125   63  125 1    
   126   63  126 1    
   127   64   65 am   BACKBONE|DICT|INTERRES
   128   64  127 1    
   129   65   66 2    
@<TRIPOS>SUBSTRUCTURE
     1 UNK         1 GROUP             0       ****    0 ROOT    
