@<TRIPOS>MOLECULE
3R135
127   129    1
SMALL
USER_CHARGES


@<TRIPOS>ATOM
      1 CA        -81.2743   29.2345  -76.9568 C.3       0 UNK        -0.1998 
      2 C         -81.9197   28.4779  -75.7989 C.2       0 UNK         0.4909 
      3 O         -82.9876   27.8975  -75.9802 O.2       0 UNK        -0.5240 
      4 N         -81.3314   28.4620  -74.5958 N.am      1 UNK        -0.4739 
      5 CA        -80.0119   28.9863  -74.2300 C.3       1 UNK         0.0864 
      6 C6        -79.9019   29.2552  -72.7045 C.3       11 UNK        -0.0881 
      7 S7        -80.5217   27.9075  -71.6348 S.3       11 UNK        -0.2682 
      8 C8        -79.7730   28.3516  -70.0368 C.3       11 UNK         0.0289 
      9 C9        -78.2676   28.1224  -70.0145 C.ar      11 UNK        -0.0687 
     10 C10       -77.7549   26.8281  -70.1414 C.ar      11 UNK        -0.0823 
     11 C11       -76.3770   26.5998  -70.0840 C.ar      11 UNK        -0.0830 
     12 C12       -75.5096   27.6783  -69.8868 C.ar      11 UNK        -0.1021 
     13 C13       -76.0092   28.9780  -69.7576 C.ar      11 UNK        -0.0753 
     14 C14       -77.3893   29.1948  -69.8282 C.ar      11 UNK        -0.0933 
     15 C15       -75.0583   30.1366  -69.4908 C.3       11 UNK         0.0166 
     16 S16       -74.0887   30.6003  -70.9600 S.3       11 UNK        -0.2615 
     17 C17       -75.3407   31.4175  -72.0101 C.3       11 UNK        -0.0865 
     18 CA        -75.4597   30.7727  -73.4175 C.3       10 UNK         0.0862 
     19 C         -76.6175   31.4228  -74.2293 C.2       10 UNK         0.5551 
     20 N         -76.3952   31.9126  -75.4432 N.am      10 UNK        -0.7319 
     21 O         -77.7504   31.4659  -73.7604 O.2       10 UNK        -0.5018 
     22 N         -74.1721   30.8026  -74.1344 N.am      10 UNK        -0.4509 
     23 C         -73.5305   29.7374  -74.6242 C.2       10 UNK         0.4899 
     24 O         -73.9193   28.5724  -74.5167 O.2       10 UNK        -0.4839 
     25 CA        -72.2153   30.0356  -75.3532 C.3       9 UNK         0.0222 
     26 CB        -71.0848   30.3302  -74.3512 C.3       9 UNK        -0.1966 
     27 N         -71.8452   28.8830  -76.1694 N.am      9 UNK        -0.4218 
     28 C         -71.3391   28.9236  -77.4076 C.2       9 UNK         0.5020 
     29 O         -71.1107   29.9725  -78.0128 O.2       9 UNK        -0.5274 
     30 CA        -71.0013   27.5816  -78.0912 C.3       8 UNK         0.0270 
     31 CB        -69.5104   27.5241  -78.4703 C.3       8 UNK        -0.1976 
     32 N         -71.3208   26.4063  -77.2730 N.am      8 UNK        -0.4313 
     33 C         -72.5310   25.8430  -77.1824 C.2       8 UNK         0.5041 
     34 O         -73.5189   26.2378  -77.8038 O.2       8 UNK        -0.5577 
     35 CA        -72.6468   24.6602  -76.2140 C.3       7 UNK         0.0284 
     36 CB        -72.5449   25.1321  -74.7517 C.3       7 UNK        -0.1958 
     37 N         -73.9301   23.9889  -76.3962 N.am      7 UNK        -0.4454 
     38 C         -74.1177   22.6649  -76.4260 C.2       7 UNK         0.5089 
     39 O         -73.2077   21.8354  -76.3646 O.2       7 UNK        -0.5125 
     40 CA        -75.5866   22.2095  -76.4910 C.3       6 UNK         0.0408 
     41 CB        -75.7678   20.6781  -76.4337 C.3       6 UNK        -0.1791 
     42 N         -76.3777   22.8895  -75.4608 N.am      6 UNK        -0.4762 
     43 C         -76.2494   22.7969  -74.1269 C.2       6 UNK         0.5007 
     44 O         -75.5332   21.9739  -73.5554 O.2       6 UNK        -0.5032 
     45 CA        -77.0700   23.8025  -73.2879 C.3       5 UNK         0.0783 
     46 C46       -76.2718   25.1025  -73.0112 C.3       11 UNK        -0.0857 
     47 S47       -74.9459   24.9048  -71.7747 S.3       11 UNK        -0.2512 
     48 C48       -75.8300   25.1843  -70.2064 C.3       11 UNK         0.0225 
     49 N         -78.3529   24.1258  -73.9147 N.am      5 UNK        -0.4615 
     50 C         -79.3647   23.2746  -74.1258 C.2       4 UNK         0.5053 
     51 O         -79.3840   22.1118  -73.7227 O.2       4 UNK        -0.5105 
     52 CA        -80.5400   23.8132  -74.9560 C.3       4 UNK         0.0263 
     53 CB        -81.5290   24.5862  -74.0677 C.3       4 UNK        -0.1981 
     54 N         -80.0682   24.6807  -76.0394 N.am      4 UNK        -0.4224 
     55 C         -79.5886   24.2362  -77.2103 C.2       3 UNK         0.4895 
     56 O         -79.5598   23.0477  -77.5296 O.2       3 UNK        -0.5091 
     57 CA        -79.0463   25.2854  -78.1989 C.3       3 UNK         0.0250 
     58 CB        -80.1640   25.7548  -79.1444 C.3       3 UNK        -0.1996 
     59 N         -78.4438   26.4531  -77.5516 N.am      3 UNK        -0.4254 
     60 C         -77.2971   26.4415  -76.8577 C.2       2 UNK         0.5004 
     61 O         -76.5982   25.4411  -76.7020 O.2       2 UNK        -0.5226 
     62 CA        -76.8928   27.7633  -76.1790 C.3       2 UNK         0.0269 
     63 CB        -76.1489   28.6614  -77.1802 C.3       2 UNK        -0.1926 
     64 N         -78.0098   28.5189  -75.5898 N.am      2 UNK        -0.4687 
     65 C         -78.9156   28.0264  -74.7313 C.2       1 UNK         0.5165 
     66 O         -78.9359   26.8489  -74.3736 O.2       1 UNK        -0.5079 
     67 H67       -81.0733   30.2706  -76.6867 H         1 UNK         0.0900 
     68 H68       -80.3463   28.7623  -77.2705 H         1 UNK         0.0900 
     69 H69       -81.9425   29.2480  -77.8179 H         1 UNK         0.0900 
     70 H70       -81.7792   27.9472  -73.8503 H         1 UNK         0.2959 
     71 H71       -79.8707   29.9494  -74.7233 H         1 UNK         0.1079 
     72 H72       -80.4703   30.1534  -72.4586 H         1 UNK         0.0837 
     73 H73       -78.8697   29.4811  -72.4318 H         1 UNK         0.0837 
     74 H74       -80.2327   27.7455  -69.2550 H         1 UNK         0.0685 
     75 H75       -80.0171   29.3891  -69.8029 H         1 UNK         0.0685 
     76 H76       -78.4351   25.9994  -70.2848 H         1 UNK         0.1434 
     77 H77       -74.4432   27.5058  -69.8321 H         1 UNK         0.1329 
     78 H78       -77.7816   30.1964  -69.7169 H         1 UNK         0.1335 
     79 H79       -74.3677   29.8517  -68.6957 H         1 UNK         0.0680 
     80 H80       -75.5983   31.0101  -69.1217 H         1 UNK         0.0680 
     81 H81       -76.3050   31.3935  -71.4997 H         1 UNK         0.1032 
     82 H82       -75.0759   32.4728  -72.0959 H         1 UNK         0.1032 
     83 H83       -75.7674   29.7352  -73.2715 H         1 UNK         0.0461 
     84 H84       -75.4760   31.8822  -75.8524 H         1 UNK         0.3453 
     85 H85       -77.1539   32.3450  -75.9457 H         1 UNK         0.3453 
     86 H86       -73.7647   31.7180  -74.2596 H         1 UNK         0.2984 
     87 H87       -72.3740   30.9093  -75.9890 H         1 UNK         0.0554 
     88 H88       -71.3223   31.1935  -73.7283 H         1 UNK         0.0847 
     89 H89       -70.1486   30.5505  -74.8644 H         1 UNK         0.0847 
     90 H90       -70.9096   29.4858  -73.6831 H         1 UNK         0.0847 
     91 H91       -72.1033   27.9882  -75.7759 H         1 UNK         0.3141 
     92 H92       -71.5851   27.5381  -79.0133 H         1 UNK         0.0743 
     93 H93       -69.2406   28.3494  -79.1309 H         1 UNK         0.0784 
     94 H94       -68.8671   27.5875  -77.5916 H         1 UNK         0.0784 
     95 H95       -69.2700   26.6010  -78.9982 H         1 UNK         0.0784 
     96 H96       -70.5623   26.0223  -76.7263 H         1 UNK         0.3213 
     97 H97       -71.8274   23.9713  -76.4312 H         1 UNK         0.0855 
     98 H98       -73.3244   25.8554  -74.5075 H         1 UNK         0.0814 
     99 H99       -71.5837   25.6040  -74.5465 H         1 UNK         0.0814 
    100 H100      -72.6450   24.2954  -74.0598 H         1 UNK         0.0814 
    101 H101      -74.7284   24.6033  -76.5412 H         1 UNK         0.3105 
    102 H102      -75.9771   22.5520  -77.4505 H         1 UNK         0.0547 
    103 H103      -76.8218   20.4031  -76.4724 H         1 UNK         0.0837 
    104 H104      -75.3409   20.2471  -75.5280 H         1 UNK         0.0837 
    105 H105      -75.2754   20.1991  -77.2806 H         1 UNK         0.0837 
    106 H106      -76.9321   23.6649  -75.8093 H         1 UNK         0.3020 
    107 H107      -77.2968   23.3191  -72.3353 H         1 UNK         0.1245 
    108 H108      -76.9411   25.8934  -72.6716 H         1 UNK         0.0781 
    109 H109      -75.8268   25.4858  -73.9312 H         1 UNK         0.0781 
    110 H110      -75.1435   24.9955  -69.3798 H         1 UNK         0.0836 
    111 H111      -76.6290   24.4479  -70.1089 H         1 UNK         0.0836 
    112 H112      -78.4752   25.0924  -74.2097 H         1 UNK         0.3022 
    113 H113      -81.0682   22.9605  -75.3883 H         1 UNK         0.0747 
    114 H114      -82.3703   24.9662  -74.6477 H         1 UNK         0.0793 
    115 H115      -81.9362   23.9409  -73.2883 H         1 UNK         0.0793 
    116 H116      -81.0556   25.4337  -73.5712 H         1 UNK         0.0793 
    117 H117      -79.9865   25.6647  -75.8196 H         1 UNK         0.3047 
    118 H118      -78.2724   24.7998  -78.7978 H         1 UNK         0.0822 
    119 H119      -79.7818   26.4363  -79.9047 H         1 UNK         0.0807 
    120 H120      -80.9640   26.2646  -78.6056 H         1 UNK         0.0807 
    121 H121      -80.6124   24.9088  -79.6674 H         1 UNK         0.0807 
    122 H122      -78.9352   27.3286  -77.6402 H         1 UNK         0.2946 
    123 H123      -76.2073   27.5085  -75.3683 H         1 UNK         0.1144 
    124 H124      -75.3193   28.1271  -77.6436 H         1 UNK         0.0793 
    125 H125      -75.7247   29.5362  -76.6920 H         1 UNK         0.0793 
    126 H126      -76.8022   29.0063  -77.9823 H         1 UNK         0.0793 
    127 H127      -78.0560   29.4980  -75.8341 H         1 UNK         0.2896 
@<TRIPOS>BOND
     1    1    2 1    
     2    1   67 1    
     3    1   68 1    
     4    1   69 1    
     5    2    3 2    
     6    2    4 am   BACKBONE|DICT|INTERRES
     7    4    5 1    
     8    4   70 1    
     9    5    6 1    
    10    5   65 1    
    11    5   71 1    
    12    6    7 1    
    13    6   72 1    
    14    6   73 1    
    15    7    8 1    
    16    8    9 1    
    17    8   74 1    
    18    8   75 1    
    19    9   10 ar   
    20    9   14 ar   
    21   10   11 ar   
    22   10   76 1    
    23   11   12 ar   
    24   11   48 1    
    25   12   13 ar   
    26   12   77 1    
    27   13   14 ar   
    28   13   15 1    
    29   14   78 1    
    30   15   16 1    
    31   15   79 1    
    32   15   80 1    
    33   16   17 1    
    34   17   18 1    
    35   17   81 1    
    36   17   82 1    
    37   18   19 1    
    38   18   22 1    
    39   18   83 1    
    40   19   20 am   BACKBONE|DICT|INTERRES
    41   19   21 2    
    42   20   84 1    
    43   20   85 1    
    44   22   23 am   BACKBONE|DICT|INTERRES
    45   22   86 1    
    46   23   24 2    
    47   23   25 1    
    48   25   26 1    
    49   25   27 1    
    50   25   87 1    
    51   26   88 1    
    52   26   89 1    
    53   26   90 1    
    54   27   28 am   BACKBONE|DICT|INTERRES
    55   27   91 1    
    56   28   29 2    
    57   28   30 1    
    58   30   31 1    
    59   30   32 1    
    60   30   92 1    
    61   31   93 1    
    62   31   94 1    
    63   31   95 1    
    64   32   33 am   BACKBONE|DICT|INTERRES
    65   32   96 1    
    66   33   34 2    
    67   33   35 1    
    68   35   36 1    
    69   35   37 1    
    70   35   97 1    
    71   36   98 1    
    72   36   99 1    
    73   36  100 1    
    74   37   38 am   BACKBONE|DICT|INTERRES
    75   37  101 1    
    76   38   39 2    
    77   38   40 1    
    78   40   41 1    
    79   40   42 1    
    80   40  102 1    
    81   41  103 1    
    82   41  104 1    
    83   41  105 1    
    84   42   43 am   BACKBONE|DICT|INTERRES
    85   42  106 1    
    86   43   44 2    
    87   43   45 1    
    88   45   46 1    
    89   45   49 1    
    90   45  107 1    
    91   46   47 1    
    92   46  108 1    
    93   46  109 1    
    94   47   48 1    
    95   48  110 1    
    96   48  111 1    
    97   49   50 am   BACKBONE|DICT|INTERRES
    98   49  112 1    
    99   50   51 2    
   100   50   52 1    
   101   52   53 1    
   102   52   54 1    
   103   52  113 1    
   104   53  114 1    
   105   53  115 1    
   106   53  116 1    
   107   54   55 am   BACKBONE|DICT|INTERRES
   108   54  117 1    
   109   55   56 2    
   110   55   57 1    
   111   57   58 1    
   112   57   59 1    
   113   57  118 1    
   114   58  119 1    
   115   58  120 1    
   116   58  121 1    
   117   59   60 am   BACKBONE|DICT|INTERRES
   118   59  122 1    
   119   60   61 2    
   120   60   62 1    
   121   62   63 1    
   122   62   64 1    
   123   62  123 1    
   124   63  124 1    
   125   63  125 1    
   126   63  126 1    
   127   64   65 am   BACKBONE|DICT|INTERRES
   128   64  127 1    
   129   65   66 2    
@<TRIPOS>SUBSTRUCTURE
     1 UNK         1 GROUP             0       ****    0 ROOT    
