@<TRIPOS>MOLECULE
3R135
127   129    1
SMALL
USER_CHARGES


@<TRIPOS>ATOM
      1 CA        -83.8901   24.6107  -74.4355 C.3       0 UNK        -0.1998 
      2 C         -82.9244   25.7737  -74.2747 C.2       0 UNK         0.4909 
      3 O         -82.6965   26.5155  -75.2305 O.2       0 UNK        -0.5240 
      4 N         -82.3457   25.9412  -73.0778 N.am      1 UNK        -0.4739 
      5 CA        -81.3663   26.9901  -72.7738 C.3       1 UNK         0.0864 
      6 C6        -81.0819   27.0961  -71.2552 C.3       11 UNK        -0.0881 
      7 S7        -80.7753   28.8198  -70.7475 S.3       11 UNK        -0.2682 
      8 C8        -79.1249   28.7176  -69.9887 C.3       11 UNK         0.0289 
      9 C9        -78.0065   28.7089  -71.0206 C.ar      11 UNK        -0.0687 
     10 C10       -77.2612   27.5494  -71.2520 C.ar      11 UNK        -0.0823 
     11 C11       -76.1842   27.5655  -72.1439 C.ar      11 UNK        -0.0830 
     12 C12       -75.8624   28.7467  -72.8186 C.ar      11 UNK        -0.1021 
     13 C13       -76.6107   29.9079  -72.6058 C.ar      11 UNK        -0.0753 
     14 C14       -77.6817   29.8817  -71.7080 C.ar      11 UNK        -0.0933 
     15 C15       -76.2669   31.1935  -73.3425 C.3       11 UNK         0.0166 
     16 S16       -75.5294   32.4367  -72.2356 S.3       11 UNK        -0.2615 
     17 C17       -73.8515   31.7628  -71.9822 C.3       11 UNK        -0.0865 
     18 CA        -72.8111   32.3854  -72.9575 C.3       10 UNK         0.0862 
     19 C         -72.2365   33.7582  -72.4958 C.2       10 UNK         0.5551 
     20 N         -71.0225   34.1242  -72.8922 N.am      10 UNK        -0.7319 
     21 O         -72.8862   34.5086  -71.7722 O.2       10 UNK        -0.5018 
     22 N         -71.7547   31.4293  -73.3200 N.am      10 UNK        -0.4509 
     23 C         -71.8675   30.4499  -74.2231 C.2       10 UNK         0.4899 
     24 O         -72.9068   30.2064  -74.8398 O.2       10 UNK        -0.4839 
     25 CA        -70.5929   29.6362  -74.5293 C.3       9 UNK         0.0222 
     26 CB        -69.5375   29.6524  -73.3982 C.3       9 UNK        -0.1966 
     27 N         -70.9083   28.2670  -74.9460 N.am      9 UNK        -0.4218 
     28 C         -71.4445   27.2874  -74.2070 C.2       9 UNK         0.5020 
     29 O         -71.6991   27.3805  -73.0046 O.2       9 UNK        -0.5274 
     30 CA        -71.7758   25.9910  -74.9704 C.3       8 UNK         0.0270 
     31 CB        -71.9763   24.7858  -74.0349 C.3       8 UNK        -0.1976 
     32 N         -72.9691   26.1705  -75.8004 N.am      8 UNK        -0.4313 
     33 C         -73.0004   26.8587  -76.9497 C.2       8 UNK         0.5041 
     34 O         -71.9972   27.3601  -77.4655 O.2       8 UNK        -0.5577 
     35 CA        -74.3783   27.0165  -77.6183 C.3       7 UNK         0.0284 
     36 CB        -74.3042   27.7025  -78.9983 C.3       7 UNK        -0.1958 
     37 N         -75.1234   25.7573  -77.7103 N.am      7 UNK        -0.4454 
     38 C         -74.7592   24.6223  -78.3244 C.2       7 UNK         0.5089 
     39 O         -73.6856   24.4573  -78.9064 O.2       7 UNK        -0.5125 
     40 CA        -75.7984   23.4855  -78.2701 C.3       6 UNK         0.0408 
     41 CB        -75.3203   22.1810  -78.9424 C.3       6 UNK        -0.1791 
     42 N         -76.2706   23.2430  -76.9026 N.am      6 UNK        -0.4762 
     43 C         -75.5554   22.8056  -75.8536 C.2       6 UNK         0.5007 
     44 O         -74.3752   22.4615  -75.9226 O.2       6 UNK        -0.5032 
     45 CA        -76.2674   22.7559  -74.4830 C.3       5 UNK         0.0783 
     46 C46       -75.6320   23.7332  -73.4648 C.3       11 UNK        -0.0857 
     47 S47       -75.8207   25.4908  -73.9167 S.3       11 UNK        -0.2512 
     48 C48       -75.3565   26.3112  -72.3634 C.3       11 UNK         0.0225 
     49 N         -77.7184   22.9520  -74.5867 N.am      5 UNK        -0.4615 
     50 C         -78.5908   21.9746  -74.8654 C.2       4 UNK         0.5053 
     51 O         -78.2716   20.7975  -75.0318 O.2       4 UNK        -0.5105 
     52 CA        -80.0648   22.3810  -74.9994 C.3       4 UNK         0.0263 
     53 CB        -80.7320   22.4803  -73.6179 C.3       4 UNK        -0.1981 
     54 N         -80.2169   23.6417  -75.7305 N.am      4 UNK        -0.4224 
     55 C         -80.1241   23.7429  -77.0663 C.2       3 UNK         0.4895 
     56 O         -79.9260   22.7807  -77.8080 O.2       3 UNK        -0.5091 
     57 CA        -80.2707   25.1388  -77.6975 C.3       3 UNK         0.0250 
     58 CB        -81.6823   25.3234  -78.2772 C.3       3 UNK        -0.1996 
     59 N         -79.9737   26.2285  -76.7653 N.am      3 UNK        -0.4254 
     60 C         -78.7306   26.5668  -76.3917 C.2       2 UNK         0.5004 
     61 O         -77.7224   26.0095  -76.8220 O.2       2 UNK        -0.5226 
     62 CA        -78.5788   27.6824  -75.3412 C.3       2 UNK         0.0269 
     63 CB        -78.3763   29.0422  -76.0260 C.3       2 UNK        -0.1926 
     64 N         -79.7004   27.7654  -74.4020 N.am      2 UNK        -0.4687 
     65 C         -80.0805   26.7678  -73.5923 C.2       1 UNK         0.5165 
     66 O         -79.5044   25.6784  -73.5290 O.2       1 UNK        -0.5079 
     67 H67       -84.8670   24.9771  -74.7483 H         1 UNK         0.0900 
     68 H68       -83.5245   23.9230  -75.1976 H         1 UNK         0.0900 
     69 H69       -84.0181   24.0551  -73.5072 H         1 UNK         0.0900 
     70 H70       -82.5438   25.2908  -72.3315 H         1 UNK         0.2959 
     71 H71       -81.8252   27.9250  -73.1038 H         1 UNK         0.1079 
     72 H72       -80.2635   26.4428  -70.9453 H         1 UNK         0.0837 
     73 H73       -81.9504   26.7642  -70.6845 H         1 UNK         0.0837 
     74 H74       -79.0706   27.8417  -69.3409 H         1 UNK         0.0685 
     75 H75       -78.9917   29.5811  -69.3358 H         1 UNK         0.0685 
     76 H76       -77.5080   26.6380  -70.7252 H         1 UNK         0.1434 
     77 H77       -75.0282   28.7602  -73.5077 H         1 UNK         0.1329 
     78 H78       -78.2536   30.7823  -71.5308 H         1 UNK         0.1335 
     79 H79       -75.5892   30.9994  -74.1754 H         1 UNK         0.0680 
     80 H80       -77.1763   31.6090  -73.7781 H         1 UNK         0.0680 
     81 H81       -73.5564   31.9196  -70.9436 H         1 UNK         0.1032 
     82 H82       -73.8955   30.6802  -72.1043 H         1 UNK         0.1032 
     83 H83       -73.3297   32.6242  -73.8879 H         1 UNK         0.0461 
     84 H84       -70.6589   35.0135  -72.5867 H         1 UNK         0.3453 
     85 H85       -70.4928   33.5641  -73.5405 H         1 UNK         0.3453 
     86 H86       -70.8729   31.5589  -72.8450 H         1 UNK         0.2984 
     87 H87       -70.1413   30.1090  -75.4022 H         1 UNK         0.0554 
     88 H88       -69.1250   30.6508  -73.2501 H         1 UNK         0.0847 
     89 H89       -68.6975   28.9998  -73.6363 H         1 UNK         0.0847 
     90 H90       -69.9524   29.3202  -72.4457 H         1 UNK         0.0847 
     91 H91       -70.8839   28.0988  -75.9484 H         1 UNK         0.3141 
     92 H92       -70.9302   25.7594  -75.6220 H         1 UNK         0.0743 
     93 H93       -71.0657   24.5796  -73.4713 H         1 UNK         0.0784 
     94 H94       -72.2237   23.8833  -74.5945 H         1 UNK         0.0784 
     95 H95       -72.7690   24.9617  -73.3097 H         1 UNK         0.0784 
     96 H96       -73.8383   25.8084  -75.4311 H         1 UNK         0.3213 
     97 H97       -74.9597   27.6654  -76.9612 H         1 UNK         0.0855 
     98 H98       -73.7086   27.1247  -79.7056 H         1 UNK         0.0814 
     99 H99       -73.8475   28.6897  -78.9191 H         1 UNK         0.0814 
    100 H100      -75.2970   27.8389  -79.4268 H         1 UNK         0.0814 
    101 H101      -76.0531   25.7751  -77.2857 H         1 UNK         0.3105 
    102 H102      -76.6664   23.8392  -78.8288 H         1 UNK         0.0547 
    103 H103      -76.0859   21.4069  -78.8946 H         1 UNK         0.0837 
    104 H104      -74.4153   21.7884  -78.4782 H         1 UNK         0.0837 
    105 H105      -75.0943   22.3488  -79.9959 H         1 UNK         0.0837 
    106 H106      -77.2172   23.5435  -76.7144 H         1 UNK         0.3020 
    107 H107      -76.0889   21.7479  -74.1005 H         1 UNK         0.1245 
    108 H108      -74.5738   23.5074  -73.3297 H         1 UNK         0.0781 
    109 H109      -76.0935   23.5746  -72.4889 H         1 UNK         0.0781 
    110 H110      -74.2976   26.5692  -72.3915 H         1 UNK         0.0836 
    111 H111      -75.4815   25.6295  -71.5215 H         1 UNK         0.0836 
    112 H112      -78.0558   23.8938  -74.4303 H         1 UNK         0.3022 
    113 H113      -80.5764   21.5930  -75.5569 H         1 UNK         0.0747 
    114 H114      -81.7949   22.6996  -73.7053 H         1 UNK         0.0793 
    115 H115      -80.6437   21.5368  -73.0777 H         1 UNK         0.0793 
    116 H116      -80.2773   23.2509  -72.9957 H         1 UNK         0.0793 
    117 H117      -80.3089   24.4840  -75.1761 H         1 UNK         0.3047 
    118 H118      -79.5605   25.1962  -78.5257 H         1 UNK         0.0822 
    119 H119      -81.7964   26.3016  -78.7446 H         1 UNK         0.0807 
    120 H120      -82.4530   25.2235  -77.5130 H         1 UNK         0.0807 
    121 H121      -81.8883   24.5736  -79.0424 H         1 UNK         0.0807 
    122 H122      -80.7652   26.6982  -76.3404 H         1 UNK         0.2946 
    123 H123      -77.6845   27.4612  -74.7583 H         1 UNK         0.1144 
    124 H124      -78.1896   29.8288  -75.2956 H         1 UNK         0.0793 
    125 H125      -79.2457   29.3308  -76.6180 H         1 UNK         0.0793 
    126 H126      -77.5167   29.0151  -76.6973 H         1 UNK         0.0793 
    127 H127      -80.2325   28.6236  -74.4065 H         1 UNK         0.2896 
@<TRIPOS>BOND
     1    1    2 1    
     2    1   67 1    
     3    1   68 1    
     4    1   69 1    
     5    2    3 2    
     6    2    4 am   BACKBONE|DICT|INTERRES
     7    4    5 1    
     8    4   70 1    
     9    5    6 1    
    10    5   65 1    
    11    5   71 1    
    12    6    7 1    
    13    6   72 1    
    14    6   73 1    
    15    7    8 1    
    16    8    9 1    
    17    8   74 1    
    18    8   75 1    
    19    9   10 ar   
    20    9   14 ar   
    21   10   11 ar   
    22   10   76 1    
    23   11   12 ar   
    24   11   48 1    
    25   12   13 ar   
    26   12   77 1    
    27   13   14 ar   
    28   13   15 1    
    29   14   78 1    
    30   15   16 1    
    31   15   79 1    
    32   15   80 1    
    33   16   17 1    
    34   17   18 1    
    35   17   81 1    
    36   17   82 1    
    37   18   19 1    
    38   18   22 1    
    39   18   83 1    
    40   19   20 am   BACKBONE|DICT|INTERRES
    41   19   21 2    
    42   20   84 1    
    43   20   85 1    
    44   22   23 am   BACKBONE|DICT|INTERRES
    45   22   86 1    
    46   23   24 2    
    47   23   25 1    
    48   25   26 1    
    49   25   27 1    
    50   25   87 1    
    51   26   88 1    
    52   26   89 1    
    53   26   90 1    
    54   27   28 am   BACKBONE|DICT|INTERRES
    55   27   91 1    
    56   28   29 2    
    57   28   30 1    
    58   30   31 1    
    59   30   32 1    
    60   30   92 1    
    61   31   93 1    
    62   31   94 1    
    63   31   95 1    
    64   32   33 am   BACKBONE|DICT|INTERRES
    65   32   96 1    
    66   33   34 2    
    67   33   35 1    
    68   35   36 1    
    69   35   37 1    
    70   35   97 1    
    71   36   98 1    
    72   36   99 1    
    73   36  100 1    
    74   37   38 am   BACKBONE|DICT|INTERRES
    75   37  101 1    
    76   38   39 2    
    77   38   40 1    
    78   40   41 1    
    79   40   42 1    
    80   40  102 1    
    81   41  103 1    
    82   41  104 1    
    83   41  105 1    
    84   42   43 am   BACKBONE|DICT|INTERRES
    85   42  106 1    
    86   43   44 2    
    87   43   45 1    
    88   45   46 1    
    89   45   49 1    
    90   45  107 1    
    91   46   47 1    
    92   46  108 1    
    93   46  109 1    
    94   47   48 1    
    95   48  110 1    
    96   48  111 1    
    97   49   50 am   BACKBONE|DICT|INTERRES
    98   49  112 1    
    99   50   51 2    
   100   50   52 1    
   101   52   53 1    
   102   52   54 1    
   103   52  113 1    
   104   53  114 1    
   105   53  115 1    
   106   53  116 1    
   107   54   55 am   BACKBONE|DICT|INTERRES
   108   54  117 1    
   109   55   56 2    
   110   55   57 1    
   111   57   58 1    
   112   57   59 1    
   113   57  118 1    
   114   58  119 1    
   115   58  120 1    
   116   58  121 1    
   117   59   60 am   BACKBONE|DICT|INTERRES
   118   59  122 1    
   119   60   61 2    
   120   60   62 1    
   121   62   63 1    
   122   62   64 1    
   123   62  123 1    
   124   63  124 1    
   125   63  125 1    
   126   63  126 1    
   127   64   65 am   BACKBONE|DICT|INTERRES
   128   64  127 1    
   129   65   66 2    
@<TRIPOS>SUBSTRUCTURE
     1 UNK         1 GROUP             0       ****    0 ROOT    
