@<TRIPOS>MOLECULE
3R135
127   129    1
SMALL
USER_CHARGES


@<TRIPOS>ATOM
      1 CA        -81.8774   26.8127  -70.9228 C.3       0 UNK        -0.1998 
      2 C         -82.3220   27.6115  -72.1387 C.2       0 UNK         0.4909 
      3 O         -83.4905   27.5490  -72.5217 O.2       0 UNK        -0.5240 
      4 N         -81.3969   28.3673  -72.7450 N.am      1 UNK        -0.4739 
      5 CA        -81.6192   29.1646  -73.9584 C.3       1 UNK         0.0864 
      6 C6        -80.5229   30.2448  -74.1618 C.3       11 UNK        -0.0881 
      7 S7        -78.8144   29.5988  -74.0775 S.3       11 UNK        -0.2682 
      8 C8        -78.3323   30.0940  -72.3919 C.3       11 UNK         0.0289 
      9 C9        -77.3707   29.0830  -71.7913 C.ar      11 UNK        -0.0687 
     10 C10       -77.8558   27.8654  -71.3108 C.ar      11 UNK        -0.0823 
     11 C11       -76.9876   26.9067  -70.7872 C.ar      11 UNK        -0.0830 
     12 C12       -75.6156   27.1821  -70.7377 C.ar      11 UNK        -0.1021 
     13 C13       -75.1140   28.4086  -71.1943 C.ar      11 UNK        -0.0753 
     14 C14       -76.0032   29.3563  -71.7143 C.ar      11 UNK        -0.0933 
     15 C15       -73.6227   28.7170  -71.0710 C.3       11 UNK         0.0166 
     16 S16       -72.8037   29.0734  -72.6655 S.3       11 UNK        -0.2615 
     17 C17       -73.0486   30.8763  -72.8385 C.3       11 UNK        -0.0865 
     18 CA        -73.7907   31.2452  -74.1593 C.3       10 UNK         0.0862 
     19 C         -74.5420   32.6119  -74.0846 C.2       10 UNK         0.5551 
     20 N         -74.6717   33.3559  -75.1766 N.am      10 UNK        -0.7319 
     21 O         -75.0531   32.9885  -73.0329 O.2       10 UNK        -0.5018 
     22 N         -72.9468   31.0639  -75.3576 N.am      10 UNK        -0.4509 
     23 C         -71.8555   31.7822  -75.6711 C.2       10 UNK         0.4899 
     24 O         -71.4003   32.6771  -74.9571 O.2       10 UNK        -0.4839 
     25 CA        -71.1794   31.4833  -77.0270 C.3       9 UNK         0.0222 
     26 CB        -69.7023   31.9323  -77.0783 C.3       9 UNK        -0.1966 
     27 N         -71.3301   30.0897  -77.4601 N.am      9 UNK        -0.4218 
     28 C         -70.8388   28.9969  -76.8597 C.2       9 UNK         0.5020 
     29 O         -70.0952   29.0083  -75.8766 O.2       9 UNK        -0.5274 
     30 CA        -71.3090   27.6523  -77.4384 C.3       8 UNK         0.0270 
     31 CB        -70.1303   26.6913  -77.6701 C.3       8 UNK        -0.1976 
     32 N         -72.2800   27.0190  -76.5472 N.am      8 UNK        -0.4313 
     33 C         -73.4699   27.5204  -76.1954 C.2       8 UNK         0.5041 
     34 O         -73.9293   28.5680  -76.6590 O.2       8 UNK        -0.5577 
     35 CA        -74.2728   26.7117  -75.1573 C.3       7 UNK         0.0284 
     36 CB        -75.6107   27.3839  -74.7928 C.3       7 UNK        -0.1958 
     37 N         -74.5382   25.3311  -75.5710 N.am      7 UNK        -0.4454 
     38 C         -73.6568   24.3202  -75.6134 C.2       7 UNK         0.5089 
     39 O         -72.4512   24.4521  -75.3916 O.2       7 UNK        -0.5125 
     40 CA        -74.2528   22.9287  -75.9172 C.3       6 UNK         0.0408 
     41 CB        -73.2449   21.7756  -75.7285 C.3       6 UNK        -0.1791 
     42 N         -75.4834   22.7046  -75.1457 N.am      6 UNK        -0.4762 
     43 C         -75.5991   22.7220  -73.8059 C.2       6 UNK         0.5007 
     44 O         -74.6393   22.6756  -73.0356 O.2       6 UNK        -0.5032 
     45 CA        -77.0089   22.9196  -73.2095 C.3       5 UNK         0.0783 
     46 C46       -77.1566   24.4005  -72.7840 C.3       11 UNK        -0.0857 
     47 S47       -78.4673   24.6624  -71.5503 S.3       11 UNK        -0.2512 
     48 C48       -77.5420   25.5813  -70.2702 C.3       11 UNK         0.0225 
     49 N         -78.0780   22.5346  -74.1355 N.am      5 UNK        -0.4615 
     50 C         -78.3769   21.2744  -74.4770 C.2       4 UNK         0.5053 
     51 O         -77.8538   20.2867  -73.9610 O.2       4 UNK        -0.5105 
     52 CA        -79.4114   21.0764  -75.6031 C.3       4 UNK         0.0263 
     53 CB        -80.8010   20.7964  -75.0084 C.3       4 UNK        -0.1981 
     54 N         -79.5095   22.2042  -76.5379 N.am      4 UNK        -0.4224 
     55 C         -78.5091   22.6916  -77.2879 C.2       3 UNK         0.4895 
     56 O         -77.3773   22.2097  -77.3093 O.2       3 UNK        -0.5091 
     57 CA        -78.7920   23.9509  -78.1276 C.3       3 UNK         0.0250 
     58 CB        -78.9567   23.5781  -79.6099 C.3       3 UNK        -0.1996 
     59 N         -79.9580   24.7298  -77.6950 N.am      3 UNK        -0.4254 
     60 C         -80.0911   25.3417  -76.5100 C.2       2 UNK         0.5004 
     61 O         -79.2581   25.2793  -75.6015 O.2       2 UNK        -0.5226 
     62 CA        -81.4070   26.0962  -76.2986 C.3       2 UNK         0.0269 
     63 CB        -82.5370   25.1220  -75.9187 C.3       2 UNK        -0.1926 
     64 N         -81.2521   27.0834  -75.2344 N.am      2 UNK        -0.4687 
     65 C         -81.8236   28.2949  -75.2190 C.2       1 UNK         0.5165 
     66 O         -82.5191   28.7294  -76.1392 O.2       1 UNK        -0.5079 
     67 H67       -82.7029   26.6992  -70.2204 H         1 UNK         0.0900 
     68 H68       -81.0594   27.3030  -70.3962 H         1 UNK         0.0900 
     69 H69       -81.5485   25.8186  -71.2252 H         1 UNK         0.0900 
     70 H70       -80.4480   28.3733  -72.4044 H         1 UNK         0.2959 
     71 H71       -82.5635   29.6963  -73.8186 H         1 UNK         0.1079 
     72 H72       -80.6530   30.7490  -75.1216 H         1 UNK         0.0837 
     73 H73       -80.6451   31.0303  -73.4145 H         1 UNK         0.0837 
     74 H74       -77.8846   31.0887  -72.4250 H         1 UNK         0.0685 
     75 H75       -79.2100   30.1724  -71.7488 H         1 UNK         0.0685 
     76 H76       -78.9115   27.6491  -71.3593 H         1 UNK         0.1434 
     77 H77       -74.9383   26.4454  -70.3278 H         1 UNK         0.1329 
     78 H78       -75.6388   30.3093  -72.0640 H         1 UNK         0.1335 
     79 H79       -73.4787   29.5478  -70.3792 H         1 UNK         0.0680 
     80 H80       -73.1045   27.8681  -70.6224 H         1 UNK         0.0680 
     81 H81       -72.0758   31.3660  -72.7884 H         1 UNK         0.1032 
     82 H82       -73.5854   31.2391  -71.9619 H         1 UNK         0.1032 
     83 H83       -74.6028   30.5303  -74.2836 H         1 UNK         0.0461 
     84 H84       -74.2763   33.0515  -76.0512 H         1 UNK         0.3453 
     85 H85       -75.1704   34.2300  -75.1226 H         1 UNK         0.3453 
     86 H86       -73.2476   30.3242  -75.9864 H         1 UNK         0.2984 
     87 H87       -71.7215   32.0797  -77.7620 H         1 UNK         0.0554 
     88 H88       -69.2528   31.7131  -78.0466 H         1 UNK         0.0847 
     89 H89       -69.1020   31.4435  -76.3105 H         1 UNK         0.0847 
     90 H90       -69.6148   33.0078  -76.9192 H         1 UNK         0.0847 
     91 H91       -71.9667   29.9469  -78.2331 H         1 UNK         0.3141 
     92 H92       -71.7978   27.8257  -78.3994 H         1 UNK         0.0743 
     93 H93       -69.6261   26.4363  -76.7369 H         1 UNK         0.0784 
     94 H94       -70.4613   25.7626  -78.1354 H         1 UNK         0.0784 
     95 H95       -69.3870   27.1390  -78.3311 H         1 UNK         0.0784 
     96 H96       -72.0089   26.1376  -76.1172 H         1 UNK         0.3213 
     97 H97       -73.6656   26.6787  -74.2505 H         1 UNK         0.0855 
     98 H98       -75.4649   28.4258  -74.5116 H         1 UNK         0.0814 
     99 H99       -76.0790   26.9024  -73.9362 H         1 UNK         0.0814 
    100 H100      -76.3178   27.3684  -75.6228 H         1 UNK         0.0814 
    101 H101      -75.4975   25.1201  -75.8019 H         1 UNK         0.3105 
    102 H102      -74.5464   22.9405  -76.9679 H         1 UNK         0.0547 
    103 H103      -72.3966   21.8887  -76.4043 H         1 UNK         0.0837 
    104 H104      -72.8453   21.7413  -74.7148 H         1 UNK         0.0837 
    105 H105      -73.7032   20.8102  -75.9420 H         1 UNK         0.0837 
    106 H106      -76.3309   22.6553  -75.7039 H         1 UNK         0.3020 
    107 H107      -77.0670   22.2834  -72.3232 H         1 UNK         0.1245 
    108 H108      -77.3736   25.0287  -73.6488 H         1 UNK         0.0781 
    109 H109      -76.2212   24.7833  -72.3704 H         1 UNK         0.0781 
    110 H110      -76.7416   24.9470  -69.8858 H         1 UNK         0.0836 
    111 H111      -78.2068   25.7797  -69.4286 H         1 UNK         0.0836 
    112 H112      -78.5698   23.2951  -74.5886 H         1 UNK         0.3022 
    113 H113      -79.0995   20.2019  -76.1778 H         1 UNK         0.0747 
    114 H114      -81.5267   20.5587  -75.7864 H         1 UNK         0.0793 
    115 H115      -80.7698   19.9448  -74.3270 H         1 UNK         0.0793 
    116 H116      -81.1782   21.6508  -74.4446 H         1 UNK         0.0793 
    117 H117      -80.4035   22.6690  -76.5902 H         1 UNK         0.3047 
    118 H118      -77.9162   24.5966  -78.0338 H         1 UNK         0.0822 
    119 H119      -79.0539   24.4658  -80.2353 H         1 UNK         0.0807 
    120 H120      -79.8347   22.9519  -79.7742 H         1 UNK         0.0807 
    121 H121      -78.0896   23.0241  -79.9729 H         1 UNK         0.0807 
    122 H122      -80.7046   24.8195  -78.3698 H         1 UNK         0.2946 
    123 H123      -81.6590   26.5989  -77.2355 H         1 UNK         0.1144 
    124 H124      -82.7004   24.3781  -76.6993 H         1 UNK         0.0793 
    125 H125      -83.4805   25.6490  -75.7750 H         1 UNK         0.0793 
    126 H126      -82.3123   24.5862  -74.9953 H         1 UNK         0.0793 
    127 H127      -80.6245   26.8191  -74.4862 H         1 UNK         0.2896 
@<TRIPOS>BOND
     1    1    2 1    
     2    1   67 1    
     3    1   68 1    
     4    1   69 1    
     5    2    3 2    
     6    2    4 am   BACKBONE|DICT|INTERRES
     7    4    5 1    
     8    4   70 1    
     9    5    6 1    
    10    5   65 1    
    11    5   71 1    
    12    6    7 1    
    13    6   72 1    
    14    6   73 1    
    15    7    8 1    
    16    8    9 1    
    17    8   74 1    
    18    8   75 1    
    19    9   10 ar   
    20    9   14 ar   
    21   10   11 ar   
    22   10   76 1    
    23   11   12 ar   
    24   11   48 1    
    25   12   13 ar   
    26   12   77 1    
    27   13   14 ar   
    28   13   15 1    
    29   14   78 1    
    30   15   16 1    
    31   15   79 1    
    32   15   80 1    
    33   16   17 1    
    34   17   18 1    
    35   17   81 1    
    36   17   82 1    
    37   18   19 1    
    38   18   22 1    
    39   18   83 1    
    40   19   20 am   BACKBONE|DICT|INTERRES
    41   19   21 2    
    42   20   84 1    
    43   20   85 1    
    44   22   23 am   BACKBONE|DICT|INTERRES
    45   22   86 1    
    46   23   24 2    
    47   23   25 1    
    48   25   26 1    
    49   25   27 1    
    50   25   87 1    
    51   26   88 1    
    52   26   89 1    
    53   26   90 1    
    54   27   28 am   BACKBONE|DICT|INTERRES
    55   27   91 1    
    56   28   29 2    
    57   28   30 1    
    58   30   31 1    
    59   30   32 1    
    60   30   92 1    
    61   31   93 1    
    62   31   94 1    
    63   31   95 1    
    64   32   33 am   BACKBONE|DICT|INTERRES
    65   32   96 1    
    66   33   34 2    
    67   33   35 1    
    68   35   36 1    
    69   35   37 1    
    70   35   97 1    
    71   36   98 1    
    72   36   99 1    
    73   36  100 1    
    74   37   38 am   BACKBONE|DICT|INTERRES
    75   37  101 1    
    76   38   39 2    
    77   38   40 1    
    78   40   41 1    
    79   40   42 1    
    80   40  102 1    
    81   41  103 1    
    82   41  104 1    
    83   41  105 1    
    84   42   43 am   BACKBONE|DICT|INTERRES
    85   42  106 1    
    86   43   44 2    
    87   43   45 1    
    88   45   46 1    
    89   45   49 1    
    90   45  107 1    
    91   46   47 1    
    92   46  108 1    
    93   46  109 1    
    94   47   48 1    
    95   48  110 1    
    96   48  111 1    
    97   49   50 am   BACKBONE|DICT|INTERRES
    98   49  112 1    
    99   50   51 2    
   100   50   52 1    
   101   52   53 1    
   102   52   54 1    
   103   52  113 1    
   104   53  114 1    
   105   53  115 1    
   106   53  116 1    
   107   54   55 am   BACKBONE|DICT|INTERRES
   108   54  117 1    
   109   55   56 2    
   110   55   57 1    
   111   57   58 1    
   112   57   59 1    
   113   57  118 1    
   114   58  119 1    
   115   58  120 1    
   116   58  121 1    
   117   59   60 am   BACKBONE|DICT|INTERRES
   118   59  122 1    
   119   60   61 2    
   120   60   62 1    
   121   62   63 1    
   122   62   64 1    
   123   62  123 1    
   124   63  124 1    
   125   63  125 1    
   126   63  126 1    
   127   64   65 am   BACKBONE|DICT|INTERRES
   128   64  127 1    
   129   65   66 2    
@<TRIPOS>SUBSTRUCTURE
     1 UNK         1 GROUP             0       ****    0 ROOT    
