@<TRIPOS>MOLECULE
3R135
127   129    1
SMALL
USER_CHARGES


@<TRIPOS>ATOM
      1 CA        -83.1427   23.5442  -71.4068 C.3       0 UNK        -0.1998 
      2 C         -82.5399   24.8303  -71.9510 C.2       0 UNK         0.4909 
      3 O         -83.2447   25.6200  -72.5815 O.2       0 UNK        -0.5240 
      4 N         -81.2409   25.0514  -71.7129 N.am      1 UNK        -0.4739 
      5 CA        -80.4900   26.2181  -72.1819 C.3       1 UNK         0.0864 
      6 C6        -79.1954   26.4508  -71.3568 C.3       11 UNK        -0.0881 
      7 S7        -79.5179   27.0703  -69.6735 S.3       11 UNK        -0.2682 
      8 C8        -79.9897   28.8089  -69.9733 C.3       11 UNK         0.0289 
      9 C9        -78.9134   29.6174  -70.6894 C.ar      11 UNK        -0.0687 
     10 C10       -79.0034   29.8493  -72.0664 C.ar      11 UNK        -0.0823 
     11 C11       -78.0448   30.6309  -72.7173 C.ar      11 UNK        -0.0830 
     12 C12       -77.0065   31.2007  -71.9776 C.ar      11 UNK        -0.1021 
     13 C13       -76.8850   30.9593  -70.6039 C.ar      11 UNK        -0.0753 
     14 C14       -77.8480   30.1670  -69.9688 C.ar      11 UNK        -0.0933 
     15 C15       -75.7614   31.5737  -69.7676 C.3       11 UNK         0.0166 
     16 S16       -74.2440   32.0073  -70.6912 S.3       11 UNK        -0.2615 
     17 C17       -73.5296   30.3665  -71.0621 C.3       11 UNK        -0.0865 
     18 CA        -73.6147   29.9391  -72.5554 C.3       10 UNK         0.0862 
     19 C         -72.9192   30.9234  -73.5268 C.2       10 UNK         0.5551 
     20 N         -73.6489   31.4869  -74.4793 N.am      10 UNK        -0.7319 
     21 O         -71.7228   31.1827  -73.4147 O.2       10 UNK        -0.5018 
     22 N         -73.0210   28.6169  -72.7506 N.am      10 UNK        -0.4509 
     23 C         -73.6040   27.4520  -72.4678 C.2       10 UNK         0.4899 
     24 O         -74.7589   27.3467  -72.0543 O.2       10 UNK        -0.4839 
     25 CA        -72.7410   26.1972  -72.6857 C.3       9 UNK         0.0222 
     26 CB        -73.3900   24.9338  -72.0949 C.3       9 UNK        -0.1966 
     27 N         -72.4347   25.9592  -74.0997 N.am      9 UNK        -0.4218 
     28 C         -71.4724   26.5837  -74.7923 C.2       9 UNK         0.5020 
     29 O         -70.8371   27.5397  -74.3433 O.2       9 UNK        -0.5274 
     30 CA        -71.0861   26.0318  -76.1756 C.3       8 UNK         0.0270 
     31 CB        -69.8500   25.1183  -76.0019 C.3       8 UNK        -0.1976 
     32 N         -72.1702   25.3270  -76.8783 N.am      8 UNK        -0.4313 
     33 C         -72.0897   24.8731  -78.1395 C.2       8 UNK         0.5041 
     34 O         -71.1030   25.0182  -78.8631 O.2       8 UNK        -0.5577 
     35 CA        -73.3172   24.1429  -78.7084 C.3       7 UNK         0.0284 
     36 CB        -73.5679   22.8013  -77.9978 C.3       7 UNK        -0.1958 
     37 N         -74.5136   24.9809  -78.6596 N.am      7 UNK        -0.4454 
     38 C         -74.7508   26.0019  -79.4961 C.2       7 UNK         0.5089 
     39 O         -74.0251   26.2929  -80.4476 O.2       7 UNK        -0.5125 
     40 CA        -76.0087   26.8498  -79.2342 C.3       6 UNK         0.0408 
     41 CB        -77.1963   26.3066  -80.0439 C.3       6 UNK        -0.1791 
     42 N         -76.3786   26.9274  -77.8192 N.am      6 UNK        -0.4762 
     43 C         -75.6256   27.4896  -76.8607 C.2       6 UNK         0.5007 
     44 O         -74.5479   28.0465  -77.0720 O.2       6 UNK        -0.5032 
     45 CA        -76.1329   27.3435  -75.4130 C.3       5 UNK         0.0783 
     46 C46       -77.2685   28.3418  -75.0777 C.3       11 UNK        -0.0857 
     47 S47       -76.7558   30.0900  -75.1146 S.3       11 UNK        -0.2512 
     48 C48       -78.1292   30.8822  -74.2162 C.3       11 UNK         0.0225 
     49 N         -76.5551   25.9696  -75.1312 N.am      5 UNK        -0.4615 
     50 C         -75.8047   24.8645  -75.2150 C.2       4 UNK         0.5053 
     51 O         -74.6051   24.8667  -75.4903 O.2       4 UNK        -0.5105 
     52 CA        -76.5271   23.5255  -75.0031 C.3       4 UNK         0.0263 
     53 CB        -76.6605   23.1900  -73.5095 C.3       4 UNK        -0.1981 
     54 N         -77.8548   23.5366  -75.6170 N.am      4 UNK        -0.4224 
     55 C         -78.0833   23.3689  -76.9258 C.2       3 UNK         0.4895 
     56 O         -77.1973   23.1562  -77.7538 O.2       3 UNK        -0.5091 
     57 CA        -79.5466   23.4671  -77.3923 C.3       3 UNK         0.0250 
     58 CB        -80.2478   22.1060  -77.2575 C.3       3 UNK        -0.1996 
     59 N         -80.3225   24.4898  -76.6824 N.am      3 UNK        -0.4254 
     60 C         -80.0952   25.8061  -76.7852 C.2       2 UNK         0.5004 
     61 O         -79.1882   26.2936  -77.4590 O.2       2 UNK        -0.5226 
     62 CA        -81.0096   26.7405  -75.9743 C.3       2 UNK         0.0269 
     63 CB        -82.4065   26.8181  -76.6119 C.3       2 UNK        -0.1926 
     64 N         -81.1440   26.4471  -74.5390 N.am      2 UNK        -0.4687 
     65 C         -80.1724   26.0979  -73.6839 C.2       1 UNK         0.5165 
     66 O         -79.0585   25.7093  -74.0288 O.2       1 UNK        -0.5079 
     67 H67       -83.9604   23.7735  -70.7241 H         1 UNK         0.0900 
     68 H68       -83.5388   22.9410  -72.2232 H         1 UNK         0.0900 
     69 H69       -82.4084   22.9459  -70.8676 H         1 UNK         0.0900 
     70 H70       -80.7070   24.3686  -71.1942 H         1 UNK         0.2959 
     71 H71       -81.1220   27.1008  -72.0704 H         1 UNK         0.1079 
     72 H72       -78.5211   27.1519  -71.8510 H         1 UNK         0.0837 
     73 H73       -78.6261   25.5230  -71.2759 H         1 UNK         0.0837 
     74 H74       -80.9255   28.8421  -70.5321 H         1 UNK         0.0685 
     75 H75       -80.2071   29.2756  -69.0114 H         1 UNK         0.0685 
     76 H76       -79.8228   29.4260  -72.6303 H         1 UNK         0.1434 
     77 H77       -76.2884   31.8265  -72.4879 H         1 UNK         0.1329 
     78 H78       -77.7792   29.9884  -68.9042 H         1 UNK         0.1335 
     79 H79       -76.1462   32.4825  -69.3034 H         1 UNK         0.0680 
     80 H80       -75.4919   30.9029  -68.9502 H         1 UNK         0.0680 
     81 H81       -72.4877   30.3756  -70.7369 H         1 UNK         0.1032 
     82 H82       -74.0250   29.6198  -70.4399 H         1 UNK         0.1032 
     83 H83       -74.6684   29.8743  -72.8317 H         1 UNK         0.0461 
     84 H84       -74.6236   31.2511  -74.5949 H         1 UNK         0.3453 
     85 H85       -73.2098   32.1328  -75.1160 H         1 UNK         0.3453 
     86 H86       -72.0922   28.6053  -73.1645 H         1 UNK         0.2984 
     87 H87       -71.8018   26.3548  -72.1508 H         1 UNK         0.0554 
     88 H88       -73.5505   25.0442  -71.0217 H         1 UNK         0.0847 
     89 H89       -72.7642   24.0534  -72.2409 H         1 UNK         0.0847 
     90 H90       -74.3605   24.7397  -72.5470 H         1 UNK         0.0847 
     91 H91       -73.0018   25.2532  -74.5568 H         1 UNK         0.3141 
     92 H92       -70.8028   26.8907  -76.7873 H         1 UNK         0.0743 
     93 H93       -70.1101   24.1855  -75.5003 H         1 UNK         0.0784 
     94 H94       -69.3854   24.8673  -76.9547 H         1 UNK         0.0784 
     95 H95       -69.0789   25.6053  -75.4027 H         1 UNK         0.0784 
     96 H96       -73.0553   25.2155  -76.3868 H         1 UNK         0.3213 
     97 H97       -73.1084   23.9161  -79.7565 H         1 UNK         0.0855 
     98 H98       -73.7594   22.9207  -76.9327 H         1 UNK         0.0814 
     99 H99       -72.7020   22.1456  -78.0968 H         1 UNK         0.0814 
    100 H100      -74.4209   22.2786  -78.4313 H         1 UNK         0.0814 
    101 H101      -75.1694   24.8078  -77.9102 H         1 UNK         0.3105 
    102 H102      -75.7987   27.8651  -79.5768 H         1 UNK         0.0547 
    103 H103      -76.9528   26.2467  -81.1055 H         1 UNK         0.0837 
    104 H104      -77.4825   25.3062  -79.7163 H         1 UNK         0.0837 
    105 H105      -78.0696   26.9519  -79.9484 H         1 UNK         0.0837 
    106 H106      -77.2848   26.5383  -77.5672 H         1 UNK         0.3020 
    107 H107      -75.2881   27.5576  -74.7582 H         1 UNK         0.1245 
    108 H108      -77.6422   28.1293  -74.0753 H         1 UNK         0.0781 
    109 H109      -78.1153   28.2104  -75.7525 H         1 UNK         0.0781 
    110 H110      -79.0798   30.5338  -74.6233 H         1 UNK         0.0836 
    111 H111      -78.0951   31.9573  -74.3984 H         1 UNK         0.0836 
    112 H112      -77.5260   25.8572  -74.8419 H         1 UNK         0.3022 
    113 H113      -75.9323   22.7401  -75.4746 H         1 UNK         0.0747 
    114 H114      -77.2710   22.3000  -73.3560 H         1 UNK         0.0793 
    115 H115      -75.6854   22.9814  -73.0706 H         1 UNK         0.0793 
    116 H116      -77.1127   24.0067  -72.9448 H         1 UNK         0.0793 
    117 H117      -78.6272   23.8066  -75.0213 H         1 UNK         0.3047 
    118 H118      -79.5313   23.7371  -78.4508 H         1 UNK         0.0822 
    119 H119      -81.2552   22.1356  -77.6732 H         1 UNK         0.0807 
    120 H120      -80.3224   21.7896  -76.2162 H         1 UNK         0.0807 
    121 H121      -79.7002   21.3306  -77.7954 H         1 UNK         0.0807 
    122 H122      -81.0761   24.1743  -76.0889 H         1 UNK         0.2946 
    123 H123      -80.5646   27.7352  -76.0415 H         1 UNK         0.1144 
    124 H124      -82.9530   25.8804  -76.5048 H         1 UNK         0.0793 
    125 H125      -82.3403   27.0385  -77.6785 H         1 UNK         0.0793 
    126 H126      -83.0062   27.6075  -76.1583 H         1 UNK         0.0793 
    127 H127      -82.0549   26.6305  -74.1344 H         1 UNK         0.2896 
@<TRIPOS>BOND
     1    1    2 1    
     2    1   67 1    
     3    1   68 1    
     4    1   69 1    
     5    2    3 2    
     6    2    4 am   BACKBONE|DICT|INTERRES
     7    4    5 1    
     8    4   70 1    
     9    5    6 1    
    10    5   65 1    
    11    5   71 1    
    12    6    7 1    
    13    6   72 1    
    14    6   73 1    
    15    7    8 1    
    16    8    9 1    
    17    8   74 1    
    18    8   75 1    
    19    9   10 ar   
    20    9   14 ar   
    21   10   11 ar   
    22   10   76 1    
    23   11   12 ar   
    24   11   48 1    
    25   12   13 ar   
    26   12   77 1    
    27   13   14 ar   
    28   13   15 1    
    29   14   78 1    
    30   15   16 1    
    31   15   79 1    
    32   15   80 1    
    33   16   17 1    
    34   17   18 1    
    35   17   81 1    
    36   17   82 1    
    37   18   19 1    
    38   18   22 1    
    39   18   83 1    
    40   19   20 am   BACKBONE|DICT|INTERRES
    41   19   21 2    
    42   20   84 1    
    43   20   85 1    
    44   22   23 am   BACKBONE|DICT|INTERRES
    45   22   86 1    
    46   23   24 2    
    47   23   25 1    
    48   25   26 1    
    49   25   27 1    
    50   25   87 1    
    51   26   88 1    
    52   26   89 1    
    53   26   90 1    
    54   27   28 am   BACKBONE|DICT|INTERRES
    55   27   91 1    
    56   28   29 2    
    57   28   30 1    
    58   30   31 1    
    59   30   32 1    
    60   30   92 1    
    61   31   93 1    
    62   31   94 1    
    63   31   95 1    
    64   32   33 am   BACKBONE|DICT|INTERRES
    65   32   96 1    
    66   33   34 2    
    67   33   35 1    
    68   35   36 1    
    69   35   37 1    
    70   35   97 1    
    71   36   98 1    
    72   36   99 1    
    73   36  100 1    
    74   37   38 am   BACKBONE|DICT|INTERRES
    75   37  101 1    
    76   38   39 2    
    77   38   40 1    
    78   40   41 1    
    79   40   42 1    
    80   40  102 1    
    81   41  103 1    
    82   41  104 1    
    83   41  105 1    
    84   42   43 am   BACKBONE|DICT|INTERRES
    85   42  106 1    
    86   43   44 2    
    87   43   45 1    
    88   45   46 1    
    89   45   49 1    
    90   45  107 1    
    91   46   47 1    
    92   46  108 1    
    93   46  109 1    
    94   47   48 1    
    95   48  110 1    
    96   48  111 1    
    97   49   50 am   BACKBONE|DICT|INTERRES
    98   49  112 1    
    99   50   51 2    
   100   50   52 1    
   101   52   53 1    
   102   52   54 1    
   103   52  113 1    
   104   53  114 1    
   105   53  115 1    
   106   53  116 1    
   107   54   55 am   BACKBONE|DICT|INTERRES
   108   54  117 1    
   109   55   56 2    
   110   55   57 1    
   111   57   58 1    
   112   57   59 1    
   113   57  118 1    
   114   58  119 1    
   115   58  120 1    
   116   58  121 1    
   117   59   60 am   BACKBONE|DICT|INTERRES
   118   59  122 1    
   119   60   61 2    
   120   60   62 1    
   121   62   63 1    
   122   62   64 1    
   123   62  123 1    
   124   63  124 1    
   125   63  125 1    
   126   63  126 1    
   127   64   65 am   BACKBONE|DICT|INTERRES
   128   64  127 1    
   129   65   66 2    
@<TRIPOS>SUBSTRUCTURE
     1 UNK         1 GROUP             0       ****    0 ROOT    
