@<TRIPOS>MOLECULE
3R135
127   129    1
SMALL
USER_CHARGES


@<TRIPOS>ATOM
      1 CA        -78.7813   29.0724  -74.8921 C.3       0 UNK        -0.1998 
      2 C         -80.1199   29.8061  -74.9074 C.2       0 UNK         0.4909 
      3 O         -80.2606   30.7857  -75.6370 O.2       0 UNK        -0.5240 
      4 N         -81.1231   29.3930  -74.1207 N.am      1 UNK        -0.4739 
      5 CA        -81.1409   28.2099  -73.2511 C.3       1 UNK         0.0864 
      6 C6        -82.2508   28.2987  -72.1704 C.3       11 UNK        -0.0881 
      7 S7        -82.2112   29.8385  -71.1913 S.3       11 UNK        -0.2682 
      8 C8        -81.1955   29.3567  -69.7584 C.3       11 UNK         0.0289 
      9 C9        -79.7219   29.2321  -70.1190 C.ar      11 UNK        -0.0687 
     10 C10       -79.0689   27.9995  -70.0279 C.ar      11 UNK        -0.0823 
     11 C11       -77.7131   27.8950  -70.3504 C.ar      11 UNK        -0.0830 
     12 C12       -77.0097   29.0353  -70.7478 C.ar      11 UNK        -0.1021 
     13 C13       -77.6505   30.2753  -70.8621 C.ar      11 UNK        -0.0753 
     14 C14       -79.0077   30.3594  -70.5377 C.ar      11 UNK        -0.0933 
     15 C15       -76.9434   31.5465  -71.3431 C.3       11 UNK         0.0166 
     16 S16       -75.1194   31.4795  -71.4379 S.3       11 UNK        -0.2615 
     17 C17       -74.8641   30.5734  -73.0031 C.3       11 UNK        -0.0865 
     18 CA        -73.4498   29.9455  -73.1043 C.3       10 UNK         0.0862 
     19 C         -73.2496   28.7490  -72.1404 C.2       10 UNK         0.5551 
     20 N         -72.3584   28.8708  -71.1666 N.am      10 UNK        -0.7319 
     21 O         -73.9147   27.7227  -72.2518 O.2       10 UNK        -0.5018 
     22 N         -73.1870   29.4999  -74.4732 N.am      10 UNK        -0.4509 
     23 C         -72.3802   30.1018  -75.3537 C.2       10 UNK         0.4899 
     24 O         -71.7841   31.1569  -75.1300 O.2       10 UNK        -0.4839 
     25 CA        -72.2227   29.4016  -76.7184 C.3       9 UNK         0.0222 
     26 CB        -71.0648   29.9682  -77.5674 C.3       9 UNK        -0.1966 
     27 N         -72.1247   27.9434  -76.5934 N.am      9 UNK        -0.4218 
     28 C         -71.1775   27.2321  -75.9620 C.2       9 UNK         0.5020 
     29 O         -70.1739   27.7278  -75.4475 O.2       9 UNK        -0.5274 
     30 CA        -71.3835   25.7072  -75.8584 C.3       8 UNK         0.0270 
     31 CB        -71.6910   25.3124  -74.4038 C.3       8 UNK        -0.1976 
     32 N         -72.4453   25.1884  -76.7274 N.am      8 UNK        -0.4313 
     33 C         -72.3545   25.0655  -78.0590 C.2       8 UNK         0.5041 
     34 O         -71.3313   25.3086  -78.6998 O.2       8 UNK        -0.5577 
     35 CA        -73.6287   24.6350  -78.8077 C.3       7 UNK         0.0284 
     36 CB        -73.7743   23.1050  -78.7977 C.3       7 UNK        -0.1958 
     37 N         -74.8470   25.2543  -78.2742 N.am      7 UNK        -0.4454 
     38 C         -75.1047   26.5710  -78.2924 C.2       7 UNK         0.5089 
     39 O         -74.3593   27.4074  -78.8014 O.2       7 UNK        -0.5125 
     40 CA        -76.3753   27.0467  -77.5665 C.3       6 UNK         0.0408 
     41 CB        -77.6259   26.8285  -78.4310 C.3       6 UNK        -0.1791 
     42 N         -76.5519   26.3994  -76.2661 N.am      6 UNK        -0.4762 
     43 C         -75.7039   26.5161  -75.2338 C.2       6 UNK         0.5007 
     44 O         -74.7052   27.2332  -75.2525 O.2       6 UNK        -0.5032 
     45 CA        -76.0078   25.6593  -73.9911 C.3       5 UNK         0.0783 
     46 C46       -77.0727   26.3598  -73.1165 C.3       11 UNK        -0.0857 
     47 S47       -77.5316   25.4275  -71.6168 S.3       11 UNK        -0.2512 
     48 C48       -77.0012   26.5500  -70.2828 C.3       11 UNK         0.0225 
     49 N         -76.3932   24.2988  -74.3762 N.am      5 UNK        -0.4615 
     50 C         -75.5781   23.4119  -74.9622 C.2       4 UNK         0.5053 
     51 O         -74.3944   23.6324  -75.2135 O.2       4 UNK        -0.5105 
     52 CA        -76.2008   22.0681  -75.3762 C.3       4 UNK         0.0263 
     53 CB        -76.2516   21.1048  -74.1799 C.3       4 UNK        -0.1981 
     54 N         -77.5434   22.2222  -75.9417 N.am      4 UNK        -0.4224 
     55 C         -77.8132   22.8560  -77.0927 C.2       3 UNK         0.4895 
     56 O         -76.9507   23.3176  -77.8390 O.2       3 UNK        -0.5091 
     57 CA        -79.2991   23.0598  -77.4404 C.3       3 UNK         0.0250 
     58 CB        -79.8542   21.8340  -78.1827 C.3       3 UNK        -0.1996 
     59 N         -80.1376   23.3531  -76.2707 N.am      3 UNK        -0.4254 
     60 C         -79.9615   24.4051  -75.4586 C.2       2 UNK         0.5004 
     61 O         -79.0730   25.2443  -75.6197 O.2       2 UNK        -0.5226 
     62 CA        -80.8870   24.4898  -74.2323 C.3       2 UNK         0.0269 
     63 CB        -80.5176   23.4063  -73.2039 C.3       2 UNK        -0.1926 
     64 N         -80.8192   25.7992  -73.5753 N.am      2 UNK        -0.4687 
     65 C         -81.3362   26.9255  -74.0830 C.2       1 UNK         0.5165 
     66 O         -81.9829   26.9659  -75.1333 O.2       1 UNK        -0.5079 
     67 H67       -78.3662   29.0377  -73.8854 H         1 UNK         0.0900 
     68 H68       -78.8920   28.0587  -75.2752 H         1 UNK         0.0900 
     69 H69       -78.0575   29.5840  -75.5264 H         1 UNK         0.0900 
     70 H70       -81.9954   29.9001  -74.1546 H         1 UNK         0.2959 
     71 H71       -80.1793   28.1430  -72.7402 H         1 UNK         0.1079 
     72 H72       -82.1941   27.4465  -71.4902 H         1 UNK         0.0837 
     73 H73       -83.2374   28.2419  -72.6355 H         1 UNK         0.0837 
     74 H74       -81.5799   28.4291  -69.3312 H         1 UNK         0.0685 
     75 H75       -81.3032   30.1166  -68.9832 H         1 UNK         0.0685 
     76 H76       -79.6127   27.1191  -69.7133 H         1 UNK         0.1434 
     77 H77       -75.9612   28.9361  -70.9812 H         1 UNK         0.1329 
     78 H78       -79.5189   31.3095  -70.6173 H         1 UNK         0.1335 
     79 H79       -77.2027   32.3625  -70.6668 H         1 UNK         0.0680 
     80 H80       -77.3389   31.8233  -72.3215 H         1 UNK         0.0680 
     81 H81       -75.6367   29.8151  -73.1412 H         1 UNK         0.1032 
     82 H82       -75.0060   31.2893  -73.8143 H         1 UNK         0.1032 
     83 H83       -72.7228   30.7155  -72.8372 H         1 UNK         0.0461 
     84 H84       -72.2262   28.1037  -70.5270 H         1 UNK         0.3453 
     85 H85       -71.8193   29.7154  -71.0566 H         1 UNK         0.3453 
     86 H86       -73.6315   28.6187  -74.7306 H         1 UNK         0.2984 
     87 H87       -73.1494   29.5912  -77.2618 H         1 UNK         0.0554 
     88 H88       -71.2154   31.0284  -77.7744 H         1 UNK         0.0847 
     89 H89       -70.9924   29.4586  -78.5282 H         1 UNK         0.0847 
     90 H90       -70.1037   29.8706  -77.0618 H         1 UNK         0.0847 
     91 H91       -72.9201   27.4316  -76.9546 H         1 UNK         0.3141 
     92 H92       -70.4439   25.2328  -76.1489 H         1 UNK         0.0743 
     93 H93       -70.8981   25.6416  -73.7310 H         1 UNK         0.0784 
     94 H94       -72.6208   25.7620  -74.0534 H         1 UNK         0.0784 
     95 H95       -71.7794   24.2313  -74.2950 H         1 UNK         0.0784 
     96 H96       -73.2988   24.8826  -76.2667 H         1 UNK         0.3213 
     97 H97       -73.5239   24.9583  -79.8456 H         1 UNK         0.0855 
     98 H98       -73.9104   22.7182  -77.7876 H         1 UNK         0.0814 
     99 H99       -72.8876   22.6256  -79.2146 H         1 UNK         0.0814 
    100 H100      -74.6275   22.7843  -79.3957 H         1 UNK         0.0814 
    101 H101      -75.5487   24.6264  -77.8886 H         1 UNK         0.3105 
    102 H102      -76.2741   28.1190  -77.3861 H         1 UNK         0.0547 
    103 H103      -78.5221   27.1997  -77.9332 H         1 UNK         0.0837 
    104 H104      -77.7830   25.7744  -78.6580 H         1 UNK         0.0837 
    105 H105      -77.5386   27.3567  -79.3812 H         1 UNK         0.0837 
    106 H106      -77.3856   25.8270  -76.1427 H         1 UNK         0.3020 
    107 H107      -75.0845   25.5899  -73.4115 H         1 UNK         0.1245 
    108 H108      -77.9890   26.5265  -73.6798 H         1 UNK         0.0781 
    109 H109      -76.7100   27.3487  -72.8386 H         1 UNK         0.0781 
    110 H110      -75.9185   26.6778  -70.3369 H         1 UNK         0.0836 
    111 H111      -77.2060   26.0799  -69.3201 H         1 UNK         0.0836 
    112 H112      -77.3634   24.0603  -74.2406 H         1 UNK         0.3022 
    113 H113      -75.5607   21.6276  -76.1437 H         1 UNK         0.0747 
    114 H114      -76.6192   20.1224  -74.4769 H         1 UNK         0.0793 
    115 H115      -75.2574   20.9615  -73.7540 H         1 UNK         0.0793 
    116 H116      -76.8961   21.4790  -73.3833 H         1 UNK         0.0793 
    117 H117      -78.3152   21.8661  -75.3976 H         1 UNK         0.3047 
    118 H118      -79.3611   23.9197  -78.1103 H         1 UNK         0.0822 
    119 H119      -80.8760   22.0046  -78.5223 H         1 UNK         0.0807 
    120 H120      -79.8528   20.9428  -77.5538 H         1 UNK         0.0807 
    121 H121      -79.2550   21.6099  -79.0666 H         1 UNK         0.0807 
    122 H122      -80.8852   22.7025  -76.0750 H         1 UNK         0.2946 
    123 H123      -81.9133   24.3257  -74.5695 H         1 UNK         0.1144 
    124 H124      -79.4838   23.4982  -72.8701 H         1 UNK         0.0793 
    125 H125      -80.6366   22.4054  -73.6205 H         1 UNK         0.0793 
    126 H126      -81.1581   23.4612  -72.3234 H         1 UNK         0.0793 
    127 H127      -80.2880   25.8393  -72.7174 H         1 UNK         0.2896 
@<TRIPOS>BOND
     1    1    2 1    
     2    1   67 1    
     3    1   68 1    
     4    1   69 1    
     5    2    3 2    
     6    2    4 am   BACKBONE|DICT|INTERRES
     7    4    5 1    
     8    4   70 1    
     9    5    6 1    
    10    5   65 1    
    11    5   71 1    
    12    6    7 1    
    13    6   72 1    
    14    6   73 1    
    15    7    8 1    
    16    8    9 1    
    17    8   74 1    
    18    8   75 1    
    19    9   10 ar   
    20    9   14 ar   
    21   10   11 ar   
    22   10   76 1    
    23   11   12 ar   
    24   11   48 1    
    25   12   13 ar   
    26   12   77 1    
    27   13   14 ar   
    28   13   15 1    
    29   14   78 1    
    30   15   16 1    
    31   15   79 1    
    32   15   80 1    
    33   16   17 1    
    34   17   18 1    
    35   17   81 1    
    36   17   82 1    
    37   18   19 1    
    38   18   22 1    
    39   18   83 1    
    40   19   20 am   BACKBONE|DICT|INTERRES
    41   19   21 2    
    42   20   84 1    
    43   20   85 1    
    44   22   23 am   BACKBONE|DICT|INTERRES
    45   22   86 1    
    46   23   24 2    
    47   23   25 1    
    48   25   26 1    
    49   25   27 1    
    50   25   87 1    
    51   26   88 1    
    52   26   89 1    
    53   26   90 1    
    54   27   28 am   BACKBONE|DICT|INTERRES
    55   27   91 1    
    56   28   29 2    
    57   28   30 1    
    58   30   31 1    
    59   30   32 1    
    60   30   92 1    
    61   31   93 1    
    62   31   94 1    
    63   31   95 1    
    64   32   33 am   BACKBONE|DICT|INTERRES
    65   32   96 1    
    66   33   34 2    
    67   33   35 1    
    68   35   36 1    
    69   35   37 1    
    70   35   97 1    
    71   36   98 1    
    72   36   99 1    
    73   36  100 1    
    74   37   38 am   BACKBONE|DICT|INTERRES
    75   37  101 1    
    76   38   39 2    
    77   38   40 1    
    78   40   41 1    
    79   40   42 1    
    80   40  102 1    
    81   41  103 1    
    82   41  104 1    
    83   41  105 1    
    84   42   43 am   BACKBONE|DICT|INTERRES
    85   42  106 1    
    86   43   44 2    
    87   43   45 1    
    88   45   46 1    
    89   45   49 1    
    90   45  107 1    
    91   46   47 1    
    92   46  108 1    
    93   46  109 1    
    94   47   48 1    
    95   48  110 1    
    96   48  111 1    
    97   49   50 am   BACKBONE|DICT|INTERRES
    98   49  112 1    
    99   50   51 2    
   100   50   52 1    
   101   52   53 1    
   102   52   54 1    
   103   52  113 1    
   104   53  114 1    
   105   53  115 1    
   106   53  116 1    
   107   54   55 am   BACKBONE|DICT|INTERRES
   108   54  117 1    
   109   55   56 2    
   110   55   57 1    
   111   57   58 1    
   112   57   59 1    
   113   57  118 1    
   114   58  119 1    
   115   58  120 1    
   116   58  121 1    
   117   59   60 am   BACKBONE|DICT|INTERRES
   118   59  122 1    
   119   60   61 2    
   120   60   62 1    
   121   62   63 1    
   122   62   64 1    
   123   62  123 1    
   124   63  124 1    
   125   63  125 1    
   126   63  126 1    
   127   64   65 am   BACKBONE|DICT|INTERRES
   128   64  127 1    
   129   65   66 2    
@<TRIPOS>SUBSTRUCTURE
     1 UNK         1 GROUP             0       ****    0 ROOT    
