@<TRIPOS>MOLECULE
3R135
127   129    1
SMALL
USER_CHARGES


@<TRIPOS>ATOM
      1 CA        -75.3254   26.4826  -70.0073 C.3       0 UNK        -0.1998 
      2 C         -76.6111   25.6747  -69.9101 C.2       0 UNK         0.4909 
      3 O         -76.6288   24.6282  -69.2623 O.2       0 UNK        -0.5240 
      4 N         -77.6885   26.1569  -70.5446 N.am      1 UNK        -0.4739 
      5 CA        -79.0204   25.5339  -70.5456 C.3       1 UNK         0.0864 
      6 C6        -80.0999   26.4905  -71.1119 C.3       11 UNK        -0.0881 
      7 S7        -80.2303   28.0321  -70.1460 S.3       11 UNK        -0.2682 
      8 C8        -80.7905   29.2197  -71.4165 C.3       11 UNK         0.0289 
      9 C9        -79.7401   29.6135  -72.4571 C.ar      11 UNK        -0.0687 
     10 C10       -80.1650   30.0131  -73.7289 C.ar      11 UNK        -0.0823 
     11 C11       -79.2463   30.4397  -74.6934 C.ar      11 UNK        -0.0830 
     12 C12       -77.8818   30.4412  -74.3883 C.ar      11 UNK        -0.1021 
     13 C13       -77.4407   30.0440  -73.1227 C.ar      11 UNK        -0.0753 
     14 C14       -78.3718   29.6440  -72.1599 C.ar      11 UNK        -0.0933 
     15 C15       -75.9580   30.0404  -72.7910 C.3       11 UNK         0.0166 
     16 S16       -75.4012   31.6565  -72.1808 S.3       11 UNK        -0.2615 
     17 C17       -73.8822   31.1930  -71.2787 C.3       11 UNK        -0.0865 
     18 CA        -72.6228   31.1552  -72.1838 C.3       10 UNK         0.0862 
     19 C         -71.3176   31.1706  -71.3348 C.2       10 UNK         0.5551 
     20 N         -70.4613   30.1587  -71.4062 N.am      10 UNK        -0.7319 
     21 O         -71.0725   32.1277  -70.6046 O.2       10 UNK        -0.5018 
     22 N         -72.6824   30.0428  -73.1470 N.am      10 UNK        -0.4509 
     23 C         -72.1375   30.0539  -74.3666 C.2       10 UNK         0.4899 
     24 O         -71.5896   31.0422  -74.8569 O.2       10 UNK        -0.4839 
     25 CA        -72.1929   28.7565  -75.1964 C.3       9 UNK         0.0222 
     26 CB        -70.8677   27.9789  -75.0789 C.3       9 UNK        -0.1966 
     27 N         -73.3381   27.8643  -74.9608 N.am      9 UNK        -0.4218 
     28 C         -73.6660   27.1535  -73.8713 C.2       9 UNK         0.5020 
     29 O         -73.1223   27.2822  -72.7742 O.2       9 UNK        -0.5274 
     30 CA        -74.7909   26.1140  -74.0382 C.3       8 UNK         0.0270 
     31 CB        -76.1719   26.7552  -73.8374 C.3       8 UNK        -0.1976 
     32 N         -74.7578   25.4494  -75.3429 N.am      8 UNK        -0.4313 
     33 C         -73.7894   24.6216  -75.7627 C.2       8 UNK         0.5041 
     34 O         -72.8310   24.2742  -75.0721 O.2       8 UNK        -0.5577 
     35 CA        -73.9045   24.1054  -77.2057 C.3       7 UNK         0.0284 
     36 CB        -74.8067   22.8615  -77.2777 C.3       7 UNK        -0.1958 
     37 N         -74.4124   25.1427  -78.1060 N.am      7 UNK        -0.4454 
     38 C         -73.6669   26.1424  -78.5992 C.2       7 UNK         0.5089 
     39 O         -72.4530   26.2450  -78.4233 O.2       7 UNK        -0.5125 
     40 CA        -74.4007   27.2225  -79.4154 C.3       6 UNK         0.0408 
     41 CB        -74.4193   26.8479  -80.9056 C.3       6 UNK        -0.1791 
     42 N         -75.7721   27.4630  -78.9569 N.am      6 UNK        -0.4762 
     43 C         -76.0976   28.0009  -77.7714 C.2       6 UNK         0.5007 
     44 O         -75.2690   28.3910  -76.9506 O.2       6 UNK        -0.5032 
     45 CA        -77.5974   28.0612  -77.4182 C.3       5 UNK         0.0783 
     46 C46       -78.2024   29.4139  -77.8562 C.3       11 UNK        -0.0857 
     47 S47       -79.9178   29.6195  -77.2699 S.3       11 UNK        -0.2512 
     48 C48       -79.7415   30.9507  -76.0402 C.3       11 UNK         0.0225 
     49 N         -78.3440   26.9158  -77.9556 N.am      5 UNK        -0.4615 
     50 C         -78.1283   25.6410  -77.6134 C.2       4 UNK         0.5053 
     51 O         -77.2483   25.2804  -76.8266 O.2       4 UNK        -0.5105 
     52 CA        -78.9889   24.5894  -78.3148 C.3       4 UNK         0.0263 
     53 CB        -78.2944   24.0822  -79.5903 C.3       4 UNK        -0.1981 
     54 N         -79.1906   23.4799  -77.3920 N.am      4 UNK        -0.4224 
     55 C         -80.3142   22.7642  -77.2707 C.2       3 UNK         0.4895 
     56 O         -81.2906   22.8983  -78.0098 O.2       3 UNK        -0.5091 
     57 CA        -80.3767   21.7169  -76.1393 C.3       3 UNK         0.0250 
     58 CB        -80.2526   20.2980  -76.7193 C.3       3 UNK        -0.1996 
     59 N         -79.3752   21.8846  -75.0782 N.am      3 UNK        -0.4254 
     60 C         -79.2947   22.9311  -74.2445 C.2       2 UNK         0.5004 
     61 O         -80.0539   23.9019  -74.2946 O.2       2 UNK        -0.5226 
     62 CA        -78.1480   22.8841  -73.2150 C.3       2 UNK         0.0269 
     63 CB        -76.7792   22.8621  -73.9182 C.3       2 UNK        -0.1926 
     64 N         -78.1839   24.0280  -72.3017 N.am      2 UNK        -0.4687 
     65 C         -79.0607   24.1877  -71.3007 C.2       1 UNK         0.5165 
     66 O         -79.8789   23.3290  -70.9658 O.2       1 UNK        -0.5079 
     67 H67       -74.8847   26.6073  -69.0185 H         1 UNK         0.0900 
     68 H68       -75.4955   27.4744  -70.4235 H         1 UNK         0.0900 
     69 H69       -74.6025   25.9663  -70.6384 H         1 UNK         0.0900 
     70 H70       -77.6316   27.0413  -71.0258 H         1 UNK         0.2959 
     71 H71       -79.2766   25.3124  -69.5069 H         1 UNK         0.1079 
     72 H72       -79.8852   26.7306  -72.1555 H         1 UNK         0.0837 
     73 H73       -81.0816   26.0124  -71.1047 H         1 UNK         0.0837 
     74 H74       -81.6708   28.8035  -71.9090 H         1 UNK         0.0685 
     75 H75       -81.1217   30.1276  -70.9111 H         1 UNK         0.0685 
     76 H76       -81.2212   30.0175  -73.9631 H         1 UNK         0.1434 
     77 H77       -77.1624   30.7699  -75.1257 H         1 UNK         0.1329 
     78 H78       -78.0252   29.3702  -71.1737 H         1 UNK         0.1335 
     79 H79       -75.3822   29.7769  -73.6787 H         1 UNK         0.0680 
     80 H80       -75.7479   29.2765  -72.0430 H         1 UNK         0.0680 
     81 H81       -74.0212   30.2402  -70.7647 H         1 UNK         0.1032 
     82 H82       -73.7600   31.9361  -70.4880 H         1 UNK         0.1032 
     83 H83       -72.6069   32.0906  -72.7466 H         1 UNK         0.0461 
     84 H84       -69.6178   30.1845  -70.8553 H         1 UNK         0.3453 
     85 H85       -70.6566   29.3673  -71.9975 H         1 UNK         0.3453 
     86 H86       -73.0264   29.1511  -72.8016 H         1 UNK         0.2984 
     87 H87       -72.2933   29.0694  -76.2372 H         1 UNK         0.0554 
     88 H88       -70.8541   27.1211  -75.7525 H         1 UNK         0.0847 
     89 H89       -70.6990   27.6113  -74.0661 H         1 UNK         0.0847 
     90 H90       -70.0180   28.6104  -75.3418 H         1 UNK         0.0847 
     91 H91       -73.9631   27.7838  -75.7604 H         1 UNK         0.3141 
     92 H92       -74.6531   25.3466  -73.2738 H         1 UNK         0.0743 
     93 H93       -76.3168   27.6076  -74.4991 H         1 UNK         0.0784 
     94 H94       -76.9812   26.0515  -74.0290 H         1 UNK         0.0784 
     95 H95       -76.2860   27.1143  -72.8173 H         1 UNK         0.0784 
     96 H96       -75.5519   25.6048  -75.9575 H         1 UNK         0.3213 
     97 H97       -72.9044   23.8140  -77.5348 H         1 UNK         0.0855 
     98 H98       -75.8299   23.0756  -76.9712 H         1 UNK         0.0814 
     99 H99       -74.4315   22.0728  -76.6241 H         1 UNK         0.0814 
    100 H100      -74.8393   22.4547  -78.2884 H         1 UNK         0.0814 
    101 H101      -75.4095   25.1598  -78.2659 H         1 UNK         0.3105 
    102 H102      -73.8422   28.1546  -79.3056 H         1 UNK         0.0547 
    103 H103      -73.4071   26.6859  -81.2789 H         1 UNK         0.0837 
    104 H104      -74.9830   25.9320  -81.0873 H         1 UNK         0.0837 
    105 H105      -74.8609   27.6408  -81.5094 H         1 UNK         0.0837 
    106 H106      -76.5188   27.1745  -79.5726 H         1 UNK         0.3020 
    107 H107      -77.6667   28.0039  -76.3303 H         1 UNK         0.1245 
    108 H108      -77.5947   30.2443  -77.4923 H         1 UNK         0.0781 
    109 H109      -78.2025   29.4995  -78.9446 H         1 UNK         0.0781 
    110 H110      -79.0809   31.7306  -76.4220 H         1 UNK         0.0836 
    111 H111      -80.7138   31.4287  -75.9109 H         1 UNK         0.0836 
    112 H112      -79.0888   27.1361  -78.6013 H         1 UNK         0.3022 
    113 H113      -79.9495   25.0406  -78.5726 H         1 UNK         0.0747 
    114 H114      -78.9040   23.3354  -80.0993 H         1 UNK         0.0793 
    115 H115      -78.1240   24.8955  -80.2966 H         1 UNK         0.0793 
    116 H116      -77.3272   23.6281  -79.3707 H         1 UNK         0.0793 
    117 H117      -78.4550   23.3625  -76.7084 H         1 UNK         0.3047 
    118 H118      -81.3613   21.8112  -75.6766 H         1 UNK         0.0822 
    119 H119      -80.3957   19.5391  -75.9498 H         1 UNK         0.0807 
    120 H120      -79.2771   20.1338  -77.1786 H         1 UNK         0.0807 
    121 H121      -81.0071   20.1214  -77.4873 H         1 UNK         0.0807 
    122 H122      -78.7092   21.1323  -74.9746 H         1 UNK         0.2946 
    123 H123      -78.2590   21.9707  -72.6259 H         1 UNK         0.1144 
    124 H124      -76.6300   21.9362  -74.4744 H         1 UNK         0.0793 
    125 H125      -75.9586   22.9388  -73.2045 H         1 UNK         0.0793 
    126 H126      -76.6862   23.6829  -74.6273 H         1 UNK         0.0793 
    127 H127      -77.5618   24.7937  -72.5069 H         1 UNK         0.2896 
@<TRIPOS>BOND
     1    1    2 1    
     2    1   67 1    
     3    1   68 1    
     4    1   69 1    
     5    2    3 2    
     6    2    4 am   BACKBONE|DICT|INTERRES
     7    4    5 1    
     8    4   70 1    
     9    5    6 1    
    10    5   65 1    
    11    5   71 1    
    12    6    7 1    
    13    6   72 1    
    14    6   73 1    
    15    7    8 1    
    16    8    9 1    
    17    8   74 1    
    18    8   75 1    
    19    9   10 ar   
    20    9   14 ar   
    21   10   11 ar   
    22   10   76 1    
    23   11   12 ar   
    24   11   48 1    
    25   12   13 ar   
    26   12   77 1    
    27   13   14 ar   
    28   13   15 1    
    29   14   78 1    
    30   15   16 1    
    31   15   79 1    
    32   15   80 1    
    33   16   17 1    
    34   17   18 1    
    35   17   81 1    
    36   17   82 1    
    37   18   19 1    
    38   18   22 1    
    39   18   83 1    
    40   19   20 am   BACKBONE|DICT|INTERRES
    41   19   21 2    
    42   20   84 1    
    43   20   85 1    
    44   22   23 am   BACKBONE|DICT|INTERRES
    45   22   86 1    
    46   23   24 2    
    47   23   25 1    
    48   25   26 1    
    49   25   27 1    
    50   25   87 1    
    51   26   88 1    
    52   26   89 1    
    53   26   90 1    
    54   27   28 am   BACKBONE|DICT|INTERRES
    55   27   91 1    
    56   28   29 2    
    57   28   30 1    
    58   30   31 1    
    59   30   32 1    
    60   30   92 1    
    61   31   93 1    
    62   31   94 1    
    63   31   95 1    
    64   32   33 am   BACKBONE|DICT|INTERRES
    65   32   96 1    
    66   33   34 2    
    67   33   35 1    
    68   35   36 1    
    69   35   37 1    
    70   35   97 1    
    71   36   98 1    
    72   36   99 1    
    73   36  100 1    
    74   37   38 am   BACKBONE|DICT|INTERRES
    75   37  101 1    
    76   38   39 2    
    77   38   40 1    
    78   40   41 1    
    79   40   42 1    
    80   40  102 1    
    81   41  103 1    
    82   41  104 1    
    83   41  105 1    
    84   42   43 am   BACKBONE|DICT|INTERRES
    85   42  106 1    
    86   43   44 2    
    87   43   45 1    
    88   45   46 1    
    89   45   49 1    
    90   45  107 1    
    91   46   47 1    
    92   46  108 1    
    93   46  109 1    
    94   47   48 1    
    95   48  110 1    
    96   48  111 1    
    97   49   50 am   BACKBONE|DICT|INTERRES
    98   49  112 1    
    99   50   51 2    
   100   50   52 1    
   101   52   53 1    
   102   52   54 1    
   103   52  113 1    
   104   53  114 1    
   105   53  115 1    
   106   53  116 1    
   107   54   55 am   BACKBONE|DICT|INTERRES
   108   54  117 1    
   109   55   56 2    
   110   55   57 1    
   111   57   58 1    
   112   57   59 1    
   113   57  118 1    
   114   58  119 1    
   115   58  120 1    
   116   58  121 1    
   117   59   60 am   BACKBONE|DICT|INTERRES
   118   59  122 1    
   119   60   61 2    
   120   60   62 1    
   121   62   63 1    
   122   62   64 1    
   123   62  123 1    
   124   63  124 1    
   125   63  125 1    
   126   63  126 1    
   127   64   65 am   BACKBONE|DICT|INTERRES
   128   64  127 1    
   129   65   66 2    
@<TRIPOS>SUBSTRUCTURE
     1 UNK         1 GROUP             0       ****    0 ROOT    
