@<TRIPOS>MOLECULE
3R135
127   129    1
SMALL
USER_CHARGES


@<TRIPOS>ATOM
      1 CA        -83.9288   30.7906  -76.7725 C.3       0 UNK        -0.1998 
      2 C         -82.5558   30.1357  -76.7643 C.2       0 UNK         0.4909 
      3 O         -81.8446   30.1922  -77.7679 O.2       0 UNK        -0.5240 
      4 N         -82.1781   29.5154  -75.6385 N.am      1 UNK        -0.4739 
      5 CA        -80.8911   28.8302  -75.4481 C.3       1 UNK         0.0864 
      6 C6        -80.6005   28.5643  -73.9507 C.3       11 UNK        -0.0881 
      7 S7        -80.4088   30.1182  -73.0187 S.3       11 UNK        -0.2682 
      8 C8        -80.3153   29.5067  -71.3053 C.3       11 UNK         0.0289 
      9 C9        -79.0305   28.7390  -71.0153 C.ar      11 UNK        -0.0687 
     10 C10       -79.0862   27.4217  -70.5497 C.ar      11 UNK        -0.0823 
     11 C11       -77.9147   26.7316  -70.2214 C.ar      11 UNK        -0.0830 
     12 C12       -76.6761   27.3567  -70.3986 C.ar      11 UNK        -0.1021 
     13 C13       -76.6034   28.6720  -70.8723 C.ar      11 UNK        -0.0753 
     14 C14       -77.7865   29.3609  -71.1615 C.ar      11 UNK        -0.0933 
     15 C15       -75.2502   29.3582  -71.0244 C.3       11 UNK         0.0166 
     16 S16       -75.0101   30.0894  -72.6778 S.3       11 UNK        -0.2615 
     17 C17       -73.2751   30.6535  -72.5689 C.3       11 UNK        -0.0865 
     18 CA        -72.2736   29.7842  -73.3856 C.3       10 UNK         0.0862 
     19 C         -71.9835   28.4016  -72.7378 C.2       10 UNK         0.5551 
     20 N         -71.8529   27.3144  -73.4845 N.am      10 UNK        -0.7319 
     21 O         -71.8370   28.3151  -71.5211 O.2       10 UNK        -0.5018 
     22 N         -72.6062   29.7461  -74.8197 N.am      10 UNK        -0.4509 
     23 C         -72.3588   30.7489  -75.6702 C.2       10 UNK         0.4899 
     24 O         -71.7425   31.7716  -75.3624 O.2       10 UNK        -0.4839 
     25 CA        -72.9112   30.5847  -77.0980 C.3       9 UNK         0.0222 
     26 CB        -72.6680   31.8211  -77.9909 C.3       9 UNK        -0.1966 
     27 N         -72.4294   29.3642  -77.7508 N.am      9 UNK        -0.4218 
     28 C         -71.1624   29.0265  -78.0427 C.2       9 UNK         0.5020 
     29 O         -70.1866   29.7443  -77.8155 O.2       9 UNK        -0.5274 
     30 CA        -70.9582   27.6583  -78.7332 C.3       8 UNK         0.0270 
     31 CB        -69.5510   27.0683  -78.4930 C.3       8 UNK        -0.1976 
     32 N         -72.0072   26.6786  -78.4106 N.am      8 UNK        -0.4313 
     33 C         -72.2998   26.1968  -77.1946 C.2       8 UNK         0.5041 
     34 O         -71.6475   26.4423  -76.1781 O.2       8 UNK        -0.5577 
     35 CA        -73.5588   25.3170  -77.1010 C.3       7 UNK         0.0284 
     36 CB        -73.1870   23.8326  -77.2370 C.3       7 UNK        -0.1958 
     37 N         -74.3109   25.5192  -75.8570 N.am      7 UNK        -0.4454 
     38 C         -74.7726   26.6953  -75.4012 C.2       7 UNK         0.5089 
     39 O         -74.5960   27.7691  -75.9814 O.2       7 UNK        -0.5125 
     40 CA        -75.5689   26.6915  -74.0860 C.3       6 UNK         0.0408 
     41 CB        -76.9505   27.3301  -74.2850 C.3       6 UNK        -0.1791 
     42 N         -75.7591   25.3508  -73.5363 N.am      6 UNK        -0.4762 
     43 C         -75.0316   24.8170  -72.5451 C.2       6 UNK         0.5007 
     44 O         -74.0852   25.3872  -72.0033 O.2       6 UNK        -0.5032 
     45 CA        -75.4147   23.3999  -72.0688 C.3       5 UNK         0.0783 
     46 C46       -76.1812   23.4443  -70.7231 C.3       11 UNK        -0.0857 
     47 S47       -77.9123   24.0222  -70.8678 S.3       11 UNK        -0.2512 
     48 C48       -78.0016   25.3379  -69.6135 C.3       11 UNK         0.0225 
     49 N         -76.1369   22.6204  -73.0790 N.am      5 UNK        -0.4615 
     50 C         -75.6276   22.2095  -74.2464 C.2       4 UNK         0.5053 
     51 O         -74.4549   22.3838  -74.5737 O.2       4 UNK        -0.5105 
     52 CA        -76.5919   21.5226  -75.2299 C.3       4 UNK         0.0263 
     53 CB        -76.4510   19.9949  -75.1374 C.3       4 UNK        -0.1981 
     54 N         -78.0027   21.8919  -75.0517 N.am      4 UNK        -0.4224 
     55 C         -78.5015   23.1248  -75.2183 C.2       3 UNK         0.4895 
     56 O         -77.8157   24.1148  -75.4834 O.2       3 UNK        -0.5091 
     57 CA        -80.0116   23.2812  -75.0164 C.3       3 UNK         0.0250 
     58 CB        -80.3397   23.6228  -73.5528 C.3       3 UNK        -0.1996 
     59 N         -80.4998   24.3442  -75.8887 N.am      3 UNK        -0.4254 
     60 C         -81.7296   24.4188  -76.4081 C.2       2 UNK         0.5004 
     61 O         -82.6162   23.5932  -76.1792 O.2       2 UNK        -0.5226 
     62 CA        -82.0211   25.6328  -77.3121 C.3       2 UNK         0.0269 
     63 CB        -83.4074   25.5587  -77.9803 C.3       2 UNK        -0.1926 
     64 N         -81.9269   26.8902  -76.5667 N.am      2 UNK        -0.4687 
     65 C         -80.7853   27.5218  -76.2594 C.2       1 UNK         0.5165 
     66 O         -79.6760   27.1035  -76.5916 O.2       1 UNK        -0.5079 
     67 H67       -83.8341   31.8573  -76.9739 H         1 UNK         0.0900 
     68 H68       -84.5498   30.3502  -77.5521 H         1 UNK         0.0900 
     69 H69       -84.4441   30.6703  -75.8197 H         1 UNK         0.0900 
     70 H70       -82.7905   29.5259  -74.8350 H         1 UNK         0.2959 
     71 H71       -80.1060   29.4864  -75.8315 H         1 UNK         0.1079 
     72 H72       -79.6832   27.9881  -73.8290 H         1 UNK         0.0837 
     73 H73       -81.3972   27.9688  -73.5006 H         1 UNK         0.0837 
     74 H74       -81.1945   28.8949  -71.0974 H         1 UNK         0.0685 
     75 H75       -80.3704   30.3602  -70.6283 H         1 UNK         0.0685 
     76 H76       -80.0452   26.9409  -70.4121 H         1 UNK         0.1434 
     77 H77       -75.7686   26.8233  -70.1500 H         1 UNK         0.1329 
     78 H78       -77.7391   30.3840  -71.5086 H         1 UNK         0.1335 
     79 H79       -74.4454   28.6466  -70.8356 H         1 UNK         0.0680 
     80 H80       -75.1621   30.1400  -70.2690 H         1 UNK         0.0680 
     81 H81       -72.9689   30.7184  -71.5232 H         1 UNK         0.1032 
     82 H82       -73.2420   31.6809  -72.9339 H         1 UNK         0.1032 
     83 H83       -71.3052   30.2822  -73.3082 H         1 UNK         0.0461 
     84 H84       -71.6940   26.4394  -73.0120 H         1 UNK         0.3453 
     85 H85       -71.8667   27.3225  -74.5002 H         1 UNK         0.3453 
     86 H86       -73.1455   28.9471  -75.1378 H         1 UNK         0.2984 
     87 H87       -73.9911   30.4673  -76.9939 H         1 UNK         0.0554 
     88 H88       -73.1148   32.7130  -77.5499 H         1 UNK         0.0847 
     89 H89       -73.1118   31.6918  -78.9779 H         1 UNK         0.0847 
     90 H90       -71.6052   32.0250  -78.1252 H         1 UNK         0.0847 
     91 H91       -73.1436   28.6720  -77.9316 H         1 UNK         0.3141 
     92 H92       -71.0488   27.8531  -79.8029 H         1 UNK         0.0743 
     93 H93       -68.7771   27.7313  -78.8816 H         1 UNK         0.0784 
     94 H94       -69.3481   26.9223  -77.4316 H         1 UNK         0.0784 
     95 H95       -69.4326   26.1070  -78.9929 H         1 UNK         0.0784 
     96 H96       -72.5968   26.4064  -79.1863 H         1 UNK         0.3213 
     97 H97       -74.2291   25.5828  -77.9209 H         1 UNK         0.0855 
     98 H98       -72.5567   23.5007  -76.4105 H         1 UNK         0.0814 
     99 H99       -72.6381   23.6463  -78.1611 H         1 UNK         0.0814 
    100 H100      -74.0748   23.2004  -77.2561 H         1 UNK         0.0814 
    101 H101      -74.4708   24.6995  -75.2873 H         1 UNK         0.3105 
    102 H102      -75.0125   27.3018  -73.3744 H         1 UNK         0.0547 
    103 H103      -77.5370   26.7946  -75.0312 H         1 UNK         0.0837 
    104 H104      -76.8644   28.3662  -74.6143 H         1 UNK         0.0837 
    105 H105      -77.5125   27.3332  -73.3522 H         1 UNK         0.0837 
    106 H106      -76.5050   24.8033  -73.9526 H         1 UNK         0.3020 
    107 H107      -74.4682   22.8844  -71.8885 H         1 UNK         0.1245 
    108 H108      -75.6357   24.0493  -69.9968 H         1 UNK         0.0781 
    109 H109      -76.2104   22.4411  -70.2952 H         1 UNK         0.0781 
    110 H110      -77.2281   25.2059  -68.8561 H         1 UNK         0.0836 
    111 H111      -78.9476   25.2323  -69.0801 H         1 UNK         0.0836 
    112 H112      -77.1128   22.4490  -72.8860 H         1 UNK         0.3022 
    113 H113      -76.2966   21.8322  -76.2348 H         1 UNK         0.0747 
    114 H114      -77.0520   19.4932  -75.8961 H         1 UNK         0.0793 
    115 H115      -75.4155   19.6883  -75.2936 H         1 UNK         0.0793 
    116 H116      -76.7580   19.6190  -74.1605 H         1 UNK         0.0793 
    117 H117      -78.6359   21.1404  -74.8166 H         1 UNK         0.3047 
    118 H118      -80.4960   22.3405  -75.2880 H         1 UNK         0.0822 
    119 H119      -81.4143   23.7217  -73.3989 H         1 UNK         0.0807 
    120 H120      -79.8714   24.5590  -73.2448 H         1 UNK         0.0807 
    121 H121      -79.9887   22.8413  -72.8781 H         1 UNK         0.0807 
    122 H122      -79.8176   25.0605  -76.1238 H         1 UNK         0.2946 
    123 H123      -81.2704   25.6311  -78.1062 H         1 UNK         0.1144 
    124 H124      -83.5653   26.3972  -78.6589 H         1 UNK         0.0793 
    125 H125      -84.2131   25.5657  -77.2451 H         1 UNK         0.0793 
    126 H126      -83.5093   24.6453  -78.5681 H         1 UNK         0.0793 
    127 H127      -82.7940   27.2912  -76.2399 H         1 UNK         0.2896 
@<TRIPOS>BOND
     1    1    2 1    
     2    1   67 1    
     3    1   68 1    
     4    1   69 1    
     5    2    3 2    
     6    2    4 am   BACKBONE|DICT|INTERRES
     7    4    5 1    
     8    4   70 1    
     9    5    6 1    
    10    5   65 1    
    11    5   71 1    
    12    6    7 1    
    13    6   72 1    
    14    6   73 1    
    15    7    8 1    
    16    8    9 1    
    17    8   74 1    
    18    8   75 1    
    19    9   10 ar   
    20    9   14 ar   
    21   10   11 ar   
    22   10   76 1    
    23   11   12 ar   
    24   11   48 1    
    25   12   13 ar   
    26   12   77 1    
    27   13   14 ar   
    28   13   15 1    
    29   14   78 1    
    30   15   16 1    
    31   15   79 1    
    32   15   80 1    
    33   16   17 1    
    34   17   18 1    
    35   17   81 1    
    36   17   82 1    
    37   18   19 1    
    38   18   22 1    
    39   18   83 1    
    40   19   20 am   BACKBONE|DICT|INTERRES
    41   19   21 2    
    42   20   84 1    
    43   20   85 1    
    44   22   23 am   BACKBONE|DICT|INTERRES
    45   22   86 1    
    46   23   24 2    
    47   23   25 1    
    48   25   26 1    
    49   25   27 1    
    50   25   87 1    
    51   26   88 1    
    52   26   89 1    
    53   26   90 1    
    54   27   28 am   BACKBONE|DICT|INTERRES
    55   27   91 1    
    56   28   29 2    
    57   28   30 1    
    58   30   31 1    
    59   30   32 1    
    60   30   92 1    
    61   31   93 1    
    62   31   94 1    
    63   31   95 1    
    64   32   33 am   BACKBONE|DICT|INTERRES
    65   32   96 1    
    66   33   34 2    
    67   33   35 1    
    68   35   36 1    
    69   35   37 1    
    70   35   97 1    
    71   36   98 1    
    72   36   99 1    
    73   36  100 1    
    74   37   38 am   BACKBONE|DICT|INTERRES
    75   37  101 1    
    76   38   39 2    
    77   38   40 1    
    78   40   41 1    
    79   40   42 1    
    80   40  102 1    
    81   41  103 1    
    82   41  104 1    
    83   41  105 1    
    84   42   43 am   BACKBONE|DICT|INTERRES
    85   42  106 1    
    86   43   44 2    
    87   43   45 1    
    88   45   46 1    
    89   45   49 1    
    90   45  107 1    
    91   46   47 1    
    92   46  108 1    
    93   46  109 1    
    94   47   48 1    
    95   48  110 1    
    96   48  111 1    
    97   49   50 am   BACKBONE|DICT|INTERRES
    98   49  112 1    
    99   50   51 2    
   100   50   52 1    
   101   52   53 1    
   102   52   54 1    
   103   52  113 1    
   104   53  114 1    
   105   53  115 1    
   106   53  116 1    
   107   54   55 am   BACKBONE|DICT|INTERRES
   108   54  117 1    
   109   55   56 2    
   110   55   57 1    
   111   57   58 1    
   112   57   59 1    
   113   57  118 1    
   114   58  119 1    
   115   58  120 1    
   116   58  121 1    
   117   59   60 am   BACKBONE|DICT|INTERRES
   118   59  122 1    
   119   60   61 2    
   120   60   62 1    
   121   62   63 1    
   122   62   64 1    
   123   62  123 1    
   124   63  124 1    
   125   63  125 1    
   126   63  126 1    
   127   64   65 am   BACKBONE|DICT|INTERRES
   128   64  127 1    
   129   65   66 2    
@<TRIPOS>SUBSTRUCTURE
     1 UNK         1 GROUP             0       ****    0 ROOT    
