@<TRIPOS>MOLECULE
3R135
127   129    1
SMALL
USER_CHARGES


@<TRIPOS>ATOM
      1 CA        -79.8451   22.8234  -71.9349 C.3       0 UNK        -0.1998 
      2 C         -79.3346   23.8378  -70.9152 C.2       0 UNK         0.4909 
      3 O         -78.4292   23.5165  -70.1486 O.2       0 UNK        -0.5240 
      4 N         -79.8813   25.0585  -70.8520 N.am      1 UNK        -0.4739 
      5 CA        -80.9335   25.6193  -71.7074 C.3       1 UNK         0.0864 
      6 C6        -81.7476   26.7210  -70.9743 C.3       11 UNK        -0.0881 
      7 S7        -80.7502   27.9306  -70.0317 S.3       11 UNK        -0.2682 
      8 C8        -81.0007   29.4992  -70.9321 C.3       11 UNK         0.0289 
      9 C9        -79.7161   30.0223  -71.5650 C.ar      11 UNK        -0.0687 
     10 C10       -79.7019   30.4298  -72.9031 C.ar      11 UNK        -0.0823 
     11 C11       -78.5339   30.9430  -73.4787 C.ar      11 UNK        -0.0830 
     12 C12       -77.3712   31.0366  -72.7076 C.ar      11 UNK        -0.1021 
     13 C13       -77.3660   30.6117  -71.3770 C.ar      11 UNK        -0.0753 
     14 C14       -78.5462   30.1311  -70.8054 C.ar      11 UNK        -0.0933 
     15 C15       -76.0782   30.6415  -70.5660 C.3       11 UNK         0.0166 
     16 S16       -75.5178   28.9639  -70.1206 S.3       11 UNK        -0.2615 
     17 C17       -75.2228   28.2150  -71.7601 C.3       11 UNK        -0.0865 
     18 CA        -73.7099   28.0937  -72.0932 C.3       10 UNK         0.0862 
     19 C         -73.0862   26.7443  -71.6455 C.2       10 UNK         0.5551 
     20 N         -73.1961   26.4066  -70.3688 N.am      10 UNK        -0.7319 
     21 O         -72.5095   25.9993  -72.4356 O.2       10 UNK        -0.5018 
     22 N         -73.4496   28.3551  -73.5104 N.am      10 UNK        -0.4509 
     23 C         -73.2655   29.5613  -74.0586 C.2       10 UNK         0.4899 
     24 O         -73.3703   30.6148  -73.4296 O.2       10 UNK        -0.4839 
     25 CA        -72.9374   29.6119  -75.5668 C.3       9 UNK         0.0222 
     26 CB        -71.9564   30.7521  -75.9162 C.3       9 UNK        -0.1966 
     27 N         -72.4890   28.3286  -76.1371 N.am      9 UNK        -0.4218 
     28 C         -71.3671   27.6631  -75.8182 C.2       9 UNK         0.5020 
     29 O         -70.5522   28.0759  -74.9911 O.2       9 UNK        -0.5274 
     30 CA        -71.0886   26.3255  -76.5253 C.3       8 UNK         0.0270 
     31 CB        -70.2979   25.3494  -75.6265 C.3       8 UNK        -0.1976 
     32 N         -72.2934   25.6541  -77.0290 N.am      8 UNK        -0.4313 
     33 C         -72.2750   24.8224  -78.0820 C.2       8 UNK         0.5041 
     34 O         -71.2993   24.6764  -78.8210 O.2       8 UNK        -0.5577 
     35 CA        -73.5265   23.9687  -78.3398 C.3       7 UNK         0.0284 
     36 CB        -73.6712   22.8807  -77.2632 C.3       7 UNK        -0.1958 
     37 N         -74.7568   24.7522  -78.4338 N.am      7 UNK        -0.4454 
     38 C         -75.0559   25.5713  -79.4519 C.2       7 UNK         0.5089 
     39 O         -74.3300   25.7457  -80.4314 O.2       7 UNK        -0.5125 
     40 CA        -76.3925   26.3303  -79.3664 C.3       6 UNK         0.0408 
     41 CB        -77.5431   25.4645  -79.9028 C.3       6 UNK        -0.1791 
     42 N         -76.7163   26.7861  -78.0133 N.am      6 UNK        -0.4762 
     43 C         -75.9794   27.6505  -77.3020 C.2       6 UNK         0.5007 
     44 O         -74.9451   28.1709  -77.7198 O.2       6 UNK        -0.5032 
     45 CA        -76.4407   27.9194  -75.8549 C.3       5 UNK         0.0783 
     46 C46       -77.6834   28.8398  -75.8044 C.3       11 UNK        -0.0857 
     47 S47       -77.2211   30.5983  -75.9240 S.3       11 UNK        -0.2512 
     48 C48       -78.5306   31.3943  -74.9348 C.3       11 UNK         0.0225 
     49 N         -76.6427   26.6716  -75.1166 N.am      5 UNK        -0.4615 
     50 C         -75.6951   25.7490  -74.8967 C.2       4 UNK         0.5053 
     51 O         -74.5083   25.8978  -75.1949 O.2       4 UNK        -0.5105 
     52 CA        -76.1671   24.4156  -74.2965 C.3       4 UNK         0.0263 
     53 CB        -76.1623   24.4651  -72.7623 C.3       4 UNK        -0.1981 
     54 N         -77.5011   24.0468  -74.7791 N.am      4 UNK        -0.4224 
     55 C         -77.7545   23.6210  -76.0262 C.2       3 UNK         0.4895 
     56 O         -76.8823   23.4401  -76.8740 O.2       3 UNK        -0.5091 
     57 CA        -79.2294   23.4091  -76.4110 C.3       3 UNK         0.0250 
     58 CB        -79.7082   22.0107  -75.9895 C.3       3 UNK        -0.1996 
     59 N         -80.1181   24.4331  -75.8528 N.am      3 UNK        -0.4254 
     60 C         -80.0679   25.7321  -76.1840 C.2       2 UNK         0.5004 
     61 O         -79.3079   26.1848  -77.0378 O.2       2 UNK        -0.5226 
     62 CA        -80.9796   26.7000  -75.4087 C.3       2 UNK         0.0269 
     63 CB        -82.2891   26.9354  -76.1768 C.3       2 UNK        -0.1926 
     64 N         -81.2865   26.2705  -74.0392 N.am      2 UNK        -0.4687 
     65 C         -80.3791   26.0986  -73.0665 C.2       1 UNK         0.5165 
     66 O         -79.1668   26.2573  -73.2368 O.2       1 UNK        -0.5079 
     67 H67       -79.1723   21.9675  -71.9887 H         1 UNK         0.0900 
     68 H68       -79.9088   23.2515  -72.9320 H         1 UNK         0.0900 
     69 H69       -80.8295   22.4560  -71.6461 H         1 UNK         0.0900 
     70 H70       -79.5020   25.7207  -70.1896 H         1 UNK         0.2959 
     71 H71       -81.6385   24.8169  -71.9336 H         1 UNK         0.1079 
     72 H72       -82.4319   27.2322  -71.6531 H         1 UNK         0.0837 
     73 H73       -82.3983   26.2352  -70.2453 H         1 UNK         0.0837 
     74 H74       -81.3636   30.2466  -70.2255 H         1 UNK         0.0685 
     75 H75       -81.7839   29.3881  -71.6825 H         1 UNK         0.0685 
     76 H76       -80.6040   30.3553  -73.4948 H         1 UNK         0.1434 
     77 H77       -76.4616   31.4158  -73.1543 H         1 UNK         0.1329 
     78 H78       -78.5441   29.8135  -69.7717 H         1 UNK         0.1335 
     79 H79       -75.2813   31.1469  -71.1146 H         1 UNK         0.0680 
     80 H80       -76.2408   31.2169  -69.6537 H         1 UNK         0.0680 
     81 H81       -75.7199   27.2452  -71.7962 H         1 UNK         0.1032 
     82 H82       -75.7311   28.8101  -72.5181 H         1 UNK         0.1032 
     83 H83       -73.1582   28.8538  -71.5361 H         1 UNK         0.0461 
     84 H84       -73.6808   27.0080  -69.7197 H         1 UNK         0.3453 
     85 H85       -72.7984   25.5365  -70.0522 H         1 UNK         0.3453 
     86 H86       -73.3163   27.5232  -74.0740 H         1 UNK         0.2984 
     87 H87       -73.8774   29.8538  -76.0615 H         1 UNK         0.0554 
     88 H88       -71.7456   30.7810  -76.9851 H         1 UNK         0.0847 
     89 H89       -71.0079   30.6508  -75.3883 H         1 UNK         0.0847 
     90 H90       -72.3729   31.7229  -75.6451 H         1 UNK         0.0847 
     91 H91       -73.1132   27.9366  -76.8361 H         1 UNK         0.3141 
     92 H92       -70.4535   26.5894  -77.3735 H         1 UNK         0.0743 
     93 H93       -69.3591   25.7897  -75.2882 H         1 UNK         0.0784 
     94 H94       -70.8707   25.0762  -74.7391 H         1 UNK         0.0784 
     95 H95       -70.0427   24.4318  -76.1565 H         1 UNK         0.0784 
     96 H96       -73.1286   25.7123  -76.4464 H         1 UNK         0.3213 
     97 H97       -73.3855   23.4634  -79.2980 H         1 UNK         0.0855 
     98 H98       -73.8381   23.3078  -76.2749 H         1 UNK         0.0814 
     99 H99       -72.7700   22.2690  -77.2043 H         1 UNK         0.0814 
    100 H100      -74.5020   22.2105  -77.4847 H         1 UNK         0.0814 
    101 H101      -75.4540   24.6021  -77.7116 H         1 UNK         0.3105 
    102 H102      -76.3109   27.2163  -79.9993 H         1 UNK         0.0547 
    103 H103      -78.4830   26.0167  -79.9145 H         1 UNK         0.0837 
    104 H104      -77.3440   25.1397  -80.9249 H         1 UNK         0.0837 
    105 H105      -77.6902   24.5692  -79.2981 H         1 UNK         0.0837 
    106 H106      -77.5824   26.4351  -77.6065 H         1 UNK         0.3020 
    107 H107      -75.6244   28.4269  -75.3435 H         1 UNK         0.1245 
    108 H108      -78.2110   28.6836  -74.8630 H         1 UNK         0.0781 
    109 H109      -78.4036   28.6096  -76.5909 H         1 UNK         0.0781 
    110 H110      -78.3877   32.4752  -74.9671 H         1 UNK         0.0836 
    111 H111      -79.4941   31.1974  -75.4076 H         1 UNK         0.0836 
    112 H112      -77.5831   26.4799  -74.7949 H         1 UNK         0.3022 
    113 H113      -75.4634   23.6415  -74.6070 H         1 UNK         0.0747 
    114 H114      -76.4381   23.5008  -72.3354 H         1 UNK         0.0793 
    115 H115      -75.1693   24.7092  -72.3845 H         1 UNK         0.0793 
    116 H116      -76.8555   25.2117  -72.3746 H         1 UNK         0.0793 
    117 H117      -78.2754   24.2443  -74.1627 H         1 UNK         0.3047 
    118 H118      -79.2943   23.4733  -77.4995 H         1 UNK         0.0822 
    119 H119      -79.0827   21.2368  -76.4370 H         1 UNK         0.0807 
    120 H120      -80.7312   21.8256  -76.3177 H         1 UNK         0.0807 
    121 H121      -79.6706   21.8712  -74.9093 H         1 UNK         0.0807 
    122 H122      -80.7989   24.1364  -75.1698 H         1 UNK         0.2946 
    123 H123      -80.4508   27.6529  -75.3417 H         1 UNK         0.1144 
    124 H124      -82.0887   27.2803  -77.1925 H         1 UNK         0.0793 
    125 H125      -82.9013   27.6976  -75.6944 H         1 UNK         0.0793 
    126 H126      -82.8834   26.0241  -76.2536 H         1 UNK         0.0793 
    127 H127      -82.2627   26.1122  -73.8318 H         1 UNK         0.2896 
@<TRIPOS>BOND
     1    1    2 1    
     2    1   67 1    
     3    1   68 1    
     4    1   69 1    
     5    2    3 2    
     6    2    4 am   BACKBONE|DICT|INTERRES
     7    4    5 1    
     8    4   70 1    
     9    5    6 1    
    10    5   65 1    
    11    5   71 1    
    12    6    7 1    
    13    6   72 1    
    14    6   73 1    
    15    7    8 1    
    16    8    9 1    
    17    8   74 1    
    18    8   75 1    
    19    9   10 ar   
    20    9   14 ar   
    21   10   11 ar   
    22   10   76 1    
    23   11   12 ar   
    24   11   48 1    
    25   12   13 ar   
    26   12   77 1    
    27   13   14 ar   
    28   13   15 1    
    29   14   78 1    
    30   15   16 1    
    31   15   79 1    
    32   15   80 1    
    33   16   17 1    
    34   17   18 1    
    35   17   81 1    
    36   17   82 1    
    37   18   19 1    
    38   18   22 1    
    39   18   83 1    
    40   19   20 am   BACKBONE|DICT|INTERRES
    41   19   21 2    
    42   20   84 1    
    43   20   85 1    
    44   22   23 am   BACKBONE|DICT|INTERRES
    45   22   86 1    
    46   23   24 2    
    47   23   25 1    
    48   25   26 1    
    49   25   27 1    
    50   25   87 1    
    51   26   88 1    
    52   26   89 1    
    53   26   90 1    
    54   27   28 am   BACKBONE|DICT|INTERRES
    55   27   91 1    
    56   28   29 2    
    57   28   30 1    
    58   30   31 1    
    59   30   32 1    
    60   30   92 1    
    61   31   93 1    
    62   31   94 1    
    63   31   95 1    
    64   32   33 am   BACKBONE|DICT|INTERRES
    65   32   96 1    
    66   33   34 2    
    67   33   35 1    
    68   35   36 1    
    69   35   37 1    
    70   35   97 1    
    71   36   98 1    
    72   36   99 1    
    73   36  100 1    
    74   37   38 am   BACKBONE|DICT|INTERRES
    75   37  101 1    
    76   38   39 2    
    77   38   40 1    
    78   40   41 1    
    79   40   42 1    
    80   40  102 1    
    81   41  103 1    
    82   41  104 1    
    83   41  105 1    
    84   42   43 am   BACKBONE|DICT|INTERRES
    85   42  106 1    
    86   43   44 2    
    87   43   45 1    
    88   45   46 1    
    89   45   49 1    
    90   45  107 1    
    91   46   47 1    
    92   46  108 1    
    93   46  109 1    
    94   47   48 1    
    95   48  110 1    
    96   48  111 1    
    97   49   50 am   BACKBONE|DICT|INTERRES
    98   49  112 1    
    99   50   51 2    
   100   50   52 1    
   101   52   53 1    
   102   52   54 1    
   103   52  113 1    
   104   53  114 1    
   105   53  115 1    
   106   53  116 1    
   107   54   55 am   BACKBONE|DICT|INTERRES
   108   54  117 1    
   109   55   56 2    
   110   55   57 1    
   111   57   58 1    
   112   57   59 1    
   113   57  118 1    
   114   58  119 1    
   115   58  120 1    
   116   58  121 1    
   117   59   60 am   BACKBONE|DICT|INTERRES
   118   59  122 1    
   119   60   61 2    
   120   60   62 1    
   121   62   63 1    
   122   62   64 1    
   123   62  123 1    
   124   63  124 1    
   125   63  125 1    
   126   63  126 1    
   127   64   65 am   BACKBONE|DICT|INTERRES
   128   64  127 1    
   129   65   66 2    
@<TRIPOS>SUBSTRUCTURE
     1 UNK         1 GROUP             0       ****    0 ROOT    
