@<TRIPOS>MOLECULE
3R135
127   129    1
SMALL
USER_CHARGES


@<TRIPOS>ATOM
      1 CA        -83.5622   23.8406  -70.1186 C.3       0 UNK        -0.1998 
      2 C         -83.6358   24.9838  -71.1195 C.2       0 UNK         0.4909 
      3 O         -84.6824   25.1933  -71.7335 O.2       0 UNK        -0.5240 
      4 N         -82.5323   25.7253  -71.2884 N.am      1 UNK        -0.4739 
      5 CA        -82.4160   26.8505  -72.2281 C.3       1 UNK         0.0864 
      6 C6        -81.2174   27.7621  -71.8586 C.3       11 UNK        -0.0881 
      7 S7        -81.5303   29.5214  -72.2284 S.3       11 UNK        -0.2682 
      8 C8        -80.2527   30.3326  -71.2132 C.3       11 UNK         0.0289 
      9 C9        -78.8569   30.0048  -71.7201 C.ar      11 UNK        -0.0687 
     10 C10       -78.1326   28.9513  -71.1547 C.ar      11 UNK        -0.0823 
     11 C11       -76.8837   28.5930  -71.6687 C.ar      11 UNK        -0.0830 
     12 C12       -76.3491   29.3203  -72.7364 C.ar      11 UNK        -0.1021 
     13 C13       -77.0430   30.4048  -73.2832 C.ar      11 UNK        -0.0753 
     14 C14       -78.3014   30.7375  -72.7734 C.ar      11 UNK        -0.0933 
     15 C15       -76.4567   31.1881  -74.4512 C.3       11 UNK         0.0166 
     16 S16       -74.7895   31.8353  -74.0865 S.3       11 UNK        -0.2615 
     17 C17       -73.9049   31.5310  -75.6613 C.3       11 UNK        -0.0865 
     18 CA        -72.4257   31.0929  -75.4766 C.3       10 UNK         0.0862 
     19 C         -71.4938   32.2998  -75.1576 C.2       10 UNK         0.5551 
     20 N         -70.7923   32.3233  -74.0303 N.am      10 UNK        -0.7319 
     21 O         -71.3950   33.2265  -75.9584 O.2       10 UNK        -0.5018 
     22 N         -72.3032   29.9522  -74.5532 N.am      10 UNK        -0.4509 
     23 C         -71.2946   29.0709  -74.5433 C.2       10 UNK         0.4899 
     24 O         -70.3728   29.0756  -75.3598 O.2       10 UNK        -0.4839 
     25 CA        -71.2878   28.0229  -73.4189 C.3       9 UNK         0.0222 
     26 CB        -72.1952   28.3780  -72.2228 C.3       9 UNK        -0.1966 
     27 N         -71.6955   26.7294  -73.9617 N.am      9 UNK        -0.4218 
     28 C         -70.8724   25.7072  -74.2276 C.2       9 UNK         0.5020 
     29 O         -69.6560   25.7279  -74.0313 O.2       9 UNK        -0.5274 
     30 CA        -71.5169   24.4295  -74.7916 C.3       8 UNK         0.0270 
     31 CB        -72.2344   23.6455  -73.6799 C.3       8 UNK        -0.1976 
     32 N         -72.4482   24.6956  -75.8900 N.am      8 UNK        -0.4313 
     33 C         -72.0810   25.1016  -77.1144 C.2       8 UNK         0.5041 
     34 O         -70.9100   25.2560  -77.4638 O.2       8 UNK        -0.5577 
     35 CA        -73.2065   25.3789  -78.1267 C.3       7 UNK         0.0284 
     36 CB        -73.6839   24.0738  -78.7836 C.3       7 UNK        -0.1958 
     37 N         -74.3450   26.0721  -77.5232 N.am      7 UNK        -0.4454 
     38 C         -74.3132   27.3351  -77.0774 C.2       7 UNK         0.5089 
     39 O         -73.3527   28.0899  -77.2198 O.2       7 UNK        -0.5125 
     40 CA        -75.5542   27.8371  -76.3214 C.3       6 UNK         0.0408 
     41 CB        -76.5820   28.4404  -77.2914 C.3       6 UNK        -0.1791 
     42 N         -76.1920   26.8011  -75.5071 N.am      6 UNK        -0.4762 
     43 C         -75.6252   26.2195  -74.4397 C.2       6 UNK         0.5007 
     44 O         -74.5016   26.5012  -74.0244 O.2       6 UNK        -0.5032 
     45 CA        -76.4337   25.0987  -73.7619 C.3       5 UNK         0.0783 
     46 C46       -77.5407   25.6756  -72.8398 C.3       11 UNK        -0.0857 
     47 S47       -77.0241   25.8454  -71.0987 S.3       11 UNK        -0.2512 
     48 C48       -76.1079   27.4248  -71.0720 C.3       11 UNK         0.0225 
     49 N         -76.9815   24.1870  -74.7692 N.am      5 UNK        -0.4615 
     50 C         -76.2428   23.3705  -75.5354 C.2       4 UNK         0.5053 
     51 O         -75.0219   23.2604  -75.4307 O.2       4 UNK        -0.5105 
     52 CA        -76.9761   22.5792  -76.6344 C.3       4 UNK         0.0263 
     53 CB        -77.4536   21.2238  -76.0907 C.3       4 UNK        -0.1981 
     54 N         -78.1149   23.3045  -77.2030 N.am      4 UNK        -0.4224 
     55 C         -78.0296   24.4771  -77.8484 C.2       3 UNK         0.4895 
     56 O         -76.9627   25.0226  -78.1267 O.2       3 UNK        -0.5091 
     57 CA        -79.3500   25.1927  -78.1908 C.3       3 UNK         0.0250 
     58 CB        -79.7452   24.9166  -79.6498 C.3       3 UNK        -0.1996 
     59 N         -80.4717   24.8477  -77.3061 N.am      3 UNK        -0.4254 
     60 C         -80.4959   25.0414  -75.9792 C.2       2 UNK         0.5004 
     61 O         -79.5552   25.5208  -75.3411 O.2       2 UNK        -0.5226 
     62 CA        -81.7428   24.5264  -75.2428 C.3       2 UNK         0.0269 
     63 CB        -81.6564   23.0017  -75.0565 C.3       2 UNK        -0.1926 
     64 N         -81.8949   25.1445  -73.9255 N.am      2 UNK        -0.4687 
     65 C         -82.3485   26.3863  -73.7031 C.2       1 UNK         0.5165 
     66 O         -82.7301   27.1393  -74.6008 O.2       1 UNK        -0.5079 
     67 H67       -82.5832   23.7754  -69.6441 H         1 UNK         0.0900 
     68 H68       -84.3088   23.9780  -69.3369 H         1 UNK         0.0900 
     69 H69       -83.7612   22.8923  -70.6172 H         1 UNK         0.0900 
     70 H70       -81.7044   25.5097  -70.7507 H         1 UNK         0.2959 
     71 H71       -83.3349   27.4336  -72.1292 H         1 UNK         0.1079 
     72 H72       -80.2981   27.4409  -72.3535 H         1 UNK         0.0837 
     73 H73       -81.0160   27.6969  -70.7881 H         1 UNK         0.0837 
     74 H74       -80.3659   30.0335  -70.1700 H         1 UNK         0.0685 
     75 H75       -80.4109   31.4118  -71.2402 H         1 UNK         0.0685 
     76 H76       -78.5540   28.3858  -70.3349 H         1 UNK         0.1434 
     77 H77       -75.3883   29.0469  -73.1469 H         1 UNK         0.1329 
     78 H78       -78.8618   31.5539  -73.2083 H         1 UNK         0.1335 
     79 H79       -77.0976   32.0316  -74.7124 H         1 UNK         0.0680 
     80 H80       -76.4456   30.5414  -75.3253 H         1 UNK         0.0680 
     81 H81       -73.9761   32.4258  -76.2829 H         1 UNK         0.1032 
     82 H82       -74.4188   30.7552  -76.2276 H         1 UNK         0.1032 
     83 H83       -72.0916   30.7390  -76.4542 H         1 UNK         0.0461 
     84 H84       -70.8668   31.5692  -73.3679 H         1 UNK         0.3453 
     85 H85       -70.1890   33.1077  -73.8394 H         1 UNK         0.3453 
     86 H86       -73.0109   29.8996  -73.8363 H         1 UNK         0.2984 
     87 H87       -70.2641   27.9714  -73.0429 H         1 UNK         0.0554 
     88 H88       -71.9321   29.3482  -71.7991 H         1 UNK         0.0847 
     89 H89       -72.0891   27.6434  -71.4244 H         1 UNK         0.0847 
     90 H90       -73.2480   28.4067  -72.4980 H         1 UNK         0.0847 
     91 H91       -72.6917   26.6154  -74.1451 H         1 UNK         0.3141 
     92 H92       -70.7144   23.7984  -75.1798 H         1 UNK         0.0743 
     93 H93       -71.5552   23.4276  -72.8546 H         1 UNK         0.0784 
     94 H94       -73.0785   24.2015  -73.2705 H         1 UNK         0.0784 
     95 H95       -72.6115   22.6916  -74.0492 H         1 UNK         0.0784 
     96 H96       -73.4313   24.5217  -75.7067 H         1 UNK         0.3213 
     97 H97       -72.7994   26.0234  -78.9090 H         1 UNK         0.0855 
     98 H98       -74.0869   23.3755  -78.0502 H         1 UNK         0.0814 
     99 H99       -72.8604   23.5714  -79.2926 H         1 UNK         0.0814 
    100 H100      -74.4587   24.2632  -79.5268 H         1 UNK         0.0814 
    101 H101      -75.2230   25.5634  -77.4643 H         1 UNK         0.3105 
    102 H102      -75.2189   28.6181  -75.6386 H         1 UNK         0.0547 
    103 H103      -77.4576   28.8177  -76.7632 H         1 UNK         0.0837 
    104 H104      -76.1498   29.2758  -77.8436 H         1 UNK         0.0837 
    105 H105      -76.9238   27.7106  -78.0256 H         1 UNK         0.0837 
    106 H106      -77.1113   26.4912  -75.7918 H         1 UNK         0.3020 
    107 H107      -75.7359   24.5160  -73.1557 H         1 UNK         0.1245 
    108 H108      -78.3933   24.9948  -72.8193 H         1 UNK         0.0781 
    109 H109      -77.9506   26.6158  -73.2142 H         1 UNK         0.0781 
    110 H110      -75.1564   27.2843  -71.5836 H         1 UNK         0.0836 
    111 H111      -75.8575   27.6639  -70.0377 H         1 UNK         0.0836 
    112 H112      -77.9707   24.2921  -74.9658 H         1 UNK         0.3022 
    113 H113      -76.2636   22.3941  -77.4406 H         1 UNK         0.0747 
    114 H114      -77.9020   20.6160  -76.8769 H         1 UNK         0.0793 
    115 H115      -76.6191   20.6536  -75.6797 H         1 UNK         0.0793 
    116 H116      -78.1903   21.3427  -75.2951 H         1 UNK         0.0793 
    117 H117      -79.0323   22.9213  -77.0313 H         1 UNK         0.3047 
    118 H118      -79.1687   26.2642  -78.0827 H         1 UNK         0.0822 
    119 H119      -80.6200   25.4979  -79.9418 H         1 UNK         0.0807 
    120 H120      -79.9698   23.8622  -79.8159 H         1 UNK         0.0807 
    121 H121      -78.9372   25.1887  -80.3308 H         1 UNK         0.0807 
    122 H122      -81.2781   24.4310  -77.7499 H         1 UNK         0.2946 
    123 H123      -82.6242   24.7644  -75.8432 H         1 UNK         0.1144 
    124 H124      -80.7779   22.7135  -74.4772 H         1 UNK         0.0793 
    125 H125      -81.5978   22.4871  -76.0164 H         1 UNK         0.0793 
    126 H126      -82.5369   22.6158  -74.5420 H         1 UNK         0.0793 
    127 H127      -81.5872   24.6038  -73.1312 H         1 UNK         0.2896 
@<TRIPOS>BOND
     1    1    2 1    
     2    1   67 1    
     3    1   68 1    
     4    1   69 1    
     5    2    3 2    
     6    2    4 am   BACKBONE|DICT|INTERRES
     7    4    5 1    
     8    4   70 1    
     9    5    6 1    
    10    5   65 1    
    11    5   71 1    
    12    6    7 1    
    13    6   72 1    
    14    6   73 1    
    15    7    8 1    
    16    8    9 1    
    17    8   74 1    
    18    8   75 1    
    19    9   10 ar   
    20    9   14 ar   
    21   10   11 ar   
    22   10   76 1    
    23   11   12 ar   
    24   11   48 1    
    25   12   13 ar   
    26   12   77 1    
    27   13   14 ar   
    28   13   15 1    
    29   14   78 1    
    30   15   16 1    
    31   15   79 1    
    32   15   80 1    
    33   16   17 1    
    34   17   18 1    
    35   17   81 1    
    36   17   82 1    
    37   18   19 1    
    38   18   22 1    
    39   18   83 1    
    40   19   20 am   BACKBONE|DICT|INTERRES
    41   19   21 2    
    42   20   84 1    
    43   20   85 1    
    44   22   23 am   BACKBONE|DICT|INTERRES
    45   22   86 1    
    46   23   24 2    
    47   23   25 1    
    48   25   26 1    
    49   25   27 1    
    50   25   87 1    
    51   26   88 1    
    52   26   89 1    
    53   26   90 1    
    54   27   28 am   BACKBONE|DICT|INTERRES
    55   27   91 1    
    56   28   29 2    
    57   28   30 1    
    58   30   31 1    
    59   30   32 1    
    60   30   92 1    
    61   31   93 1    
    62   31   94 1    
    63   31   95 1    
    64   32   33 am   BACKBONE|DICT|INTERRES
    65   32   96 1    
    66   33   34 2    
    67   33   35 1    
    68   35   36 1    
    69   35   37 1    
    70   35   97 1    
    71   36   98 1    
    72   36   99 1    
    73   36  100 1    
    74   37   38 am   BACKBONE|DICT|INTERRES
    75   37  101 1    
    76   38   39 2    
    77   38   40 1    
    78   40   41 1    
    79   40   42 1    
    80   40  102 1    
    81   41  103 1    
    82   41  104 1    
    83   41  105 1    
    84   42   43 am   BACKBONE|DICT|INTERRES
    85   42  106 1    
    86   43   44 2    
    87   43   45 1    
    88   45   46 1    
    89   45   49 1    
    90   45  107 1    
    91   46   47 1    
    92   46  108 1    
    93   46  109 1    
    94   47   48 1    
    95   48  110 1    
    96   48  111 1    
    97   49   50 am   BACKBONE|DICT|INTERRES
    98   49  112 1    
    99   50   51 2    
   100   50   52 1    
   101   52   53 1    
   102   52   54 1    
   103   52  113 1    
   104   53  114 1    
   105   53  115 1    
   106   53  116 1    
   107   54   55 am   BACKBONE|DICT|INTERRES
   108   54  117 1    
   109   55   56 2    
   110   55   57 1    
   111   57   58 1    
   112   57   59 1    
   113   57  118 1    
   114   58  119 1    
   115   58  120 1    
   116   58  121 1    
   117   59   60 am   BACKBONE|DICT|INTERRES
   118   59  122 1    
   119   60   61 2    
   120   60   62 1    
   121   62   63 1    
   122   62   64 1    
   123   62  123 1    
   124   63  124 1    
   125   63  125 1    
   126   63  126 1    
   127   64   65 am   BACKBONE|DICT|INTERRES
   128   64  127 1    
   129   65   66 2    
@<TRIPOS>SUBSTRUCTURE
     1 UNK         1 GROUP             0       ****    0 ROOT    
