@<TRIPOS>MOLECULE
3R135
127   129    1
SMALL
USER_CHARGES


@<TRIPOS>ATOM
      1 CA        -76.1175   22.6717  -70.3120 C.3       0 UNK        -0.1998 
      2 C         -77.4466   23.2974  -70.7073 C.2       0 UNK         0.4909 
      3 O         -78.4397   23.1275  -70.0000 O.2       0 UNK        -0.5240 
      4 N         -77.4724   24.0183  -71.8363 N.am      1 UNK        -0.4739 
      5 CA        -78.6661   24.6793  -72.3817 C.3       1 UNK         0.0864 
      6 C6        -78.2495   25.7933  -73.3786 C.3       11 UNK        -0.0881 
      7 S7        -79.5895   26.9570  -73.7962 S.3       11 UNK        -0.2682 
      8 C8        -79.4379   28.2156  -72.4906 C.3       11 UNK         0.0289 
      9 C9        -78.2212   29.1083  -72.6852 C.ar      11 UNK        -0.0687 
     10 C10       -78.1924   30.0363  -73.7316 C.ar      11 UNK        -0.0823 
     11 C11       -77.0865   30.8730  -73.9060 C.ar      11 UNK        -0.0830 
     12 C12       -76.0099   30.7781  -73.0209 C.ar      11 UNK        -0.1021 
     13 C13       -76.0350   29.8733  -71.9539 C.ar      11 UNK        -0.0753 
     14 C14       -77.1411   29.0323  -71.7991 C.ar      11 UNK        -0.0933 
     15 C15       -74.8695   29.8036  -70.9734 C.3       11 UNK         0.0166 
     16 S16       -74.4585   31.4464  -70.2892 S.3       11 UNK        -0.2615 
     17 C17       -72.6345   31.3987  -70.1859 C.3       11 UNK        -0.0865 
     18 CA        -71.9462   32.0924  -71.4035 C.3       10 UNK         0.0862 
     19 C         -70.4357   32.3997  -71.1566 C.2       10 UNK         0.5551 
     20 N         -69.5883   32.3951  -72.1784 N.am      10 UNK        -0.7319 
     21 O         -70.0284   32.6812  -70.0319 O.2       10 UNK        -0.5018 
     22 N         -72.2449   31.4143  -72.6812 N.am      10 UNK        -0.4509 
     23 C         -71.8734   30.1684  -72.9992 C.2       10 UNK         0.4899 
     24 O         -71.1248   29.4696  -72.3104 O.2       10 UNK        -0.4839 
     25 CA        -72.4717   29.5806  -74.2810 C.3       9 UNK         0.0222 
     26 CB        -71.5803   29.8614  -75.5014 C.3       9 UNK        -0.1966 
     27 N         -72.5913   28.1424  -74.0687 N.am      9 UNK        -0.4218 
     28 C         -73.6085   27.3724  -74.4583 C.2       9 UNK         0.5020 
     29 O         -74.5474   27.7531  -75.1607 O.2       9 UNK        -0.5274 
     30 CA        -73.5868   25.9282  -73.9507 C.3       8 UNK         0.0270 
     31 CB        -74.1122   25.8411  -72.5049 C.3       8 UNK        -0.1976 
     32 N         -74.4216   25.1346  -74.8428 N.am      8 UNK        -0.4313 
     33 C         -74.3067   23.8230  -75.0715 C.2       8 UNK         0.5041 
     34 O         -73.5192   23.0910  -74.4710 O.2       8 UNK        -0.5577 
     35 CA        -75.2281   23.2149  -76.1444 C.3       7 UNK         0.0284 
     36 CB        -76.3953   22.4713  -75.4830 C.3       7 UNK        -0.1958 
     37 N         -75.7552   24.2108  -77.0851 N.am      7 UNK        -0.4454 
     38 C         -75.0428   24.7254  -78.0993 C.2       7 UNK         0.5089 
     39 O         -73.8925   24.3796  -78.3695 O.2       7 UNK        -0.5125 
     40 CA        -75.7049   25.8265  -78.9366 C.3       6 UNK         0.0408 
     41 CB        -76.5834   25.2217  -80.0426 C.3       6 UNK        -0.1791 
     42 N         -76.5182   26.7051  -78.0967 N.am      6 UNK        -0.4762 
     43 C         -76.3195   28.0194  -77.9242 C.2       6 UNK         0.5007 
     44 O         -75.4206   28.6463  -78.4886 O.2       6 UNK        -0.5032 
     45 CA        -77.3018   28.7502  -76.9728 C.3       5 UNK         0.0783 
     46 C46       -77.4709   30.2628  -77.2883 C.3       11 UNK        -0.0857 
     47 S47       -76.1905   31.2976  -76.4999 S.3       11 UNK        -0.2512 
     48 C48       -77.0604   31.9083  -75.0216 C.3       11 UNK         0.0225 
     49 N         -78.5946   28.0638  -76.8467 N.am      5 UNK        -0.4615 
     50 C         -79.4848   27.8467  -77.8244 C.2       4 UNK         0.5053 
     51 O         -79.3399   28.2134  -78.9916 O.2       4 UNK        -0.5105 
     52 CA        -80.7485   27.0691  -77.4184 C.3       4 UNK         0.0263 
     53 CB        -81.9944   27.6139  -78.1402 C.3       4 UNK        -0.1981 
     54 N         -80.6747   25.6189  -77.6356 N.am      4 UNK        -0.4224 
     55 C         -79.6944   24.7734  -77.2859 C.2       3 UNK         0.4895 
     56 O         -78.5859   25.0961  -76.8429 O.2       3 UNK        -0.5091 
     57 CA        -80.0205   23.2840  -77.4127 C.3       3 UNK         0.0250 
     58 CB        -79.1761   22.6075  -78.5051 C.3       3 UNK        -0.1996 
     59 N         -79.7194   22.6964  -76.1153 N.am      3 UNK        -0.4254 
     60 C         -80.4406   21.7750  -75.4690 C.2       2 UNK         0.5004 
     61 O         -81.4227   21.2086  -75.9498 O.2       2 UNK        -0.5226 
     62 CA        -79.9935   21.4299  -74.0345 C.3       2 UNK         0.0269 
     63 CB        -79.1912   20.1184  -74.0223 C.3       2 UNK        -0.1926 
     64 N         -79.1956   22.4853  -73.3951 N.am      2 UNK        -0.4687 
     65 C         -79.6756   23.6727  -72.9908 C.2       1 UNK         0.5165 
     66 O         -80.8663   23.9750  -73.0735 O.2       1 UNK        -0.5079 
     67 H67       -76.2383   21.5996  -70.1594 H         1 UNK         0.0900 
     68 H68       -75.3527   22.8193  -71.0742 H         1 UNK         0.0900 
     69 H69       -75.7594   23.1101  -69.3809 H         1 UNK         0.0900 
     70 H70       -76.6205   24.1340  -72.3650 H         1 UNK         0.2959 
     71 H71       -79.1793   25.1581  -71.5445 H         1 UNK         0.1079 
     72 H72       -77.4238   26.3742  -72.9677 H         1 UNK         0.0837 
     73 H73       -77.8668   25.3623  -74.3039 H         1 UNK         0.0837 
     74 H74       -79.4145   27.7260  -71.5159 H         1 UNK         0.0685 
     75 H75       -80.3359   28.8348  -72.4976 H         1 UNK         0.0685 
     76 H76       -79.0335   30.1064  -74.4077 H         1 UNK         0.1434 
     77 H77       -75.1578   31.4300  -73.1488 H         1 UNK         0.1329 
     78 H78       -77.1672   28.3250  -70.9815 H         1 UNK         0.1335 
     79 H79       -74.0146   29.3650  -71.4827 H         1 UNK         0.0680 
     80 H80       -75.1000   29.1351  -70.1425 H         1 UNK         0.0680 
     81 H81       -72.3679   31.9076  -69.2580 H         1 UNK         0.1032 
     82 H82       -72.2875   30.3715  -70.0648 H         1 UNK         0.1032 
     83 H83       -72.3966   33.0812  -71.4981 H         1 UNK         0.0461 
     84 H84       -68.6160   32.6050  -72.0168 H         1 UNK         0.3453 
     85 H85       -69.9116   32.1726  -73.1060 H         1 UNK         0.3453 
     86 H86       -72.8270   31.9324  -73.3229 H         1 UNK         0.2984 
     87 H87       -73.4602   30.0165  -74.4425 H         1 UNK         0.0554 
     88 H88       -72.0056   29.4268  -76.4064 H         1 UNK         0.0847 
     89 H89       -70.5772   29.4527  -75.3724 H         1 UNK         0.0847 
     90 H90       -71.4792   30.9335  -75.6743 H         1 UNK         0.0847 
     91 H91       -71.8944   27.7666  -73.4366 H         1 UNK         0.3141 
     92 H92       -72.5601   25.5578  -73.9952 H         1 UNK         0.0743 
     93 H93       -73.4793   26.4117  -71.8241 H         1 UNK         0.0784 
     94 H94       -75.1221   26.2417  -72.4178 H         1 UNK         0.0784 
     95 H95       -74.1225   24.8122  -72.1462 H         1 UNK         0.0784 
     96 H96       -75.0413   25.6933  -75.4174 H         1 UNK         0.3213 
     97 H97       -74.6368   22.4845  -76.7015 H         1 UNK         0.0855 
     98 H98       -77.0485   23.1622  -74.9550 H         1 UNK         0.0814 
     99 H99       -76.0343   21.7382  -74.7599 H         1 UNK         0.0814 
    100 H100      -76.9854   21.9286  -76.2211 H         1 UNK         0.0814 
    101 H101      -76.7092   24.5269  -76.9423 H         1 UNK         0.3105 
    102 H102      -74.9028   26.3903  -79.4170 H         1 UNK         0.0547 
    103 H103      -77.4282   24.6695  -79.6333 H         1 UNK         0.0837 
    104 H104      -76.9815   25.9986  -80.6955 H         1 UNK         0.0837 
    105 H105      -76.0113   24.5341  -80.6669 H         1 UNK         0.0837 
    106 H106      -77.3043   26.2778  -77.6144 H         1 UNK         0.3020 
    107 H107      -76.8506   28.6635  -75.9829 H         1 UNK         0.1245 
    108 H108      -78.4456   30.6150  -76.9484 H         1 UNK         0.0781 
    109 H109      -77.4648   30.4447  -78.3647 H         1 UNK         0.0781 
    110 H110      -76.5520   32.8068  -74.6685 H         1 UNK         0.0836 
    111 H111      -78.0717   32.2245  -75.2815 H         1 UNK         0.0836 
    112 H112      -78.7918   27.6739  -75.9328 H         1 UNK         0.3022 
    113 H113      -80.9086   27.2239  -76.3511 H         1 UNK         0.0747 
    114 H114      -82.0827   28.6932  -78.0068 H         1 UNK         0.0793 
    115 H115      -82.9089   27.1668  -77.7499 H         1 UNK         0.0793 
    116 H116      -81.9570   27.4207  -79.2131 H         1 UNK         0.0793 
    117 H117      -81.5158   25.2095  -78.0153 H         1 UNK         0.3047 
    118 H118      -81.0805   23.1584  -77.6446 H         1 UNK         0.0822 
    119 H119      -79.3804   23.0449  -79.4830 H         1 UNK         0.0807 
    120 H120      -79.4021   21.5433  -78.5728 H         1 UNK         0.0807 
    121 H121      -78.1071   22.7073  -78.3152 H         1 UNK         0.0807 
    122 H122      -78.9681   23.1508  -75.6173 H         1 UNK         0.2946 
    123 H123      -80.9000   21.2837  -73.4424 H         1 UNK         0.1144 
    124 H124      -79.7719   19.3027  -74.4556 H         1 UNK         0.0793 
    125 H125      -78.9296   19.8220  -73.0063 H         1 UNK         0.0793 
    126 H126      -78.2686   20.2010  -74.5978 H         1 UNK         0.0793 
    127 H127      -78.2200   22.2855  -73.2327 H         1 UNK         0.2896 
@<TRIPOS>BOND
     1    1    2 1    
     2    1   67 1    
     3    1   68 1    
     4    1   69 1    
     5    2    3 2    
     6    2    4 am   BACKBONE|DICT|INTERRES
     7    4    5 1    
     8    4   70 1    
     9    5    6 1    
    10    5   65 1    
    11    5   71 1    
    12    6    7 1    
    13    6   72 1    
    14    6   73 1    
    15    7    8 1    
    16    8    9 1    
    17    8   74 1    
    18    8   75 1    
    19    9   10 ar   
    20    9   14 ar   
    21   10   11 ar   
    22   10   76 1    
    23   11   12 ar   
    24   11   48 1    
    25   12   13 ar   
    26   12   77 1    
    27   13   14 ar   
    28   13   15 1    
    29   14   78 1    
    30   15   16 1    
    31   15   79 1    
    32   15   80 1    
    33   16   17 1    
    34   17   18 1    
    35   17   81 1    
    36   17   82 1    
    37   18   19 1    
    38   18   22 1    
    39   18   83 1    
    40   19   20 am   BACKBONE|DICT|INTERRES
    41   19   21 2    
    42   20   84 1    
    43   20   85 1    
    44   22   23 am   BACKBONE|DICT|INTERRES
    45   22   86 1    
    46   23   24 2    
    47   23   25 1    
    48   25   26 1    
    49   25   27 1    
    50   25   87 1    
    51   26   88 1    
    52   26   89 1    
    53   26   90 1    
    54   27   28 am   BACKBONE|DICT|INTERRES
    55   27   91 1    
    56   28   29 2    
    57   28   30 1    
    58   30   31 1    
    59   30   32 1    
    60   30   92 1    
    61   31   93 1    
    62   31   94 1    
    63   31   95 1    
    64   32   33 am   BACKBONE|DICT|INTERRES
    65   32   96 1    
    66   33   34 2    
    67   33   35 1    
    68   35   36 1    
    69   35   37 1    
    70   35   97 1    
    71   36   98 1    
    72   36   99 1    
    73   36  100 1    
    74   37   38 am   BACKBONE|DICT|INTERRES
    75   37  101 1    
    76   38   39 2    
    77   38   40 1    
    78   40   41 1    
    79   40   42 1    
    80   40  102 1    
    81   41  103 1    
    82   41  104 1    
    83   41  105 1    
    84   42   43 am   BACKBONE|DICT|INTERRES
    85   42  106 1    
    86   43   44 2    
    87   43   45 1    
    88   45   46 1    
    89   45   49 1    
    90   45  107 1    
    91   46   47 1    
    92   46  108 1    
    93   46  109 1    
    94   47   48 1    
    95   48  110 1    
    96   48  111 1    
    97   49   50 am   BACKBONE|DICT|INTERRES
    98   49  112 1    
    99   50   51 2    
   100   50   52 1    
   101   52   53 1    
   102   52   54 1    
   103   52  113 1    
   104   53  114 1    
   105   53  115 1    
   106   53  116 1    
   107   54   55 am   BACKBONE|DICT|INTERRES
   108   54  117 1    
   109   55   56 2    
   110   55   57 1    
   111   57   58 1    
   112   57   59 1    
   113   57  118 1    
   114   58  119 1    
   115   58  120 1    
   116   58  121 1    
   117   59   60 am   BACKBONE|DICT|INTERRES
   118   59  122 1    
   119   60   61 2    
   120   60   62 1    
   121   62   63 1    
   122   62   64 1    
   123   62  123 1    
   124   63  124 1    
   125   63  125 1    
   126   63  126 1    
   127   64   65 am   BACKBONE|DICT|INTERRES
   128   64  127 1    
   129   65   66 2    
@<TRIPOS>SUBSTRUCTURE
     1 UNK         1 GROUP             0       ****    0 ROOT    
