@<TRIPOS>MOLECULE
3R135
127   129    1
SMALL
USER_CHARGES


@<TRIPOS>ATOM
      1 CA        -79.1177   29.1374  -80.1346 C.3       0 UNK        -0.1998 
      2 C         -79.3909   28.3376  -78.8698 C.2       0 UNK         0.4909 
      3 O         -79.3440   27.1077  -78.9054 O.2       0 UNK        -0.5240 
      4 N         -79.6637   29.0266  -77.7530 N.am      1 UNK        -0.4739 
      5 CA        -79.9582   28.4258  -76.4474 C.3       1 UNK         0.0864 
      6 C6        -79.9672   29.4939  -75.3236 C.3       11 UNK        -0.0881 
      7 S7        -79.5563   28.7861  -73.6921 S.3       11 UNK        -0.2682 
      8 C8        -77.7983   29.2369  -73.5896 C.3       11 UNK         0.0289 
      9 C9        -77.1200   28.6556  -72.3587 C.ar      11 UNK        -0.0687 
     10 C10       -76.8947   27.2788  -72.2767 C.ar      11 UNK        -0.0823 
     11 C11       -76.2251   26.7316  -71.1782 C.ar      11 UNK        -0.0830 
     12 C12       -75.7954   27.5728  -70.1497 C.ar      11 UNK        -0.1021 
     13 C13       -76.0169   28.9520  -70.2162 C.ar      11 UNK        -0.0753 
     14 C14       -76.6798   29.4899  -71.3246 C.ar      11 UNK        -0.0933 
     15 C15       -75.5694   29.8415  -69.0650 C.3       11 UNK         0.0166 
     16 S16       -73.7573   29.8460  -68.8686 S.3       11 UNK        -0.2615 
     17 C17       -73.2414   31.3578  -69.7582 C.3       11 UNK        -0.0865 
     18 CA        -72.5116   31.1128  -71.1053 C.3       10 UNK         0.0862 
     19 C         -71.1837   30.3075  -70.9579 C.2       10 UNK         0.5551 
     20 N         -70.9702   29.2199  -71.6913 N.am      10 UNK        -0.7319 
     21 O         -70.3197   30.6921  -70.1733 O.2       10 UNK        -0.5018 
     22 N         -73.4305   30.6067  -72.1338 N.am      10 UNK        -0.4509 
     23 C         -73.2637   30.8047  -73.4457 C.2       10 UNK         0.4899 
     24 O         -72.3751   31.5051  -73.9359 O.2       10 UNK        -0.4839 
     25 CA        -74.2672   30.1055  -74.3717 C.3       9 UNK         0.0222 
     26 CB        -75.2208   31.1287  -75.0101 C.3       9 UNK        -0.1966 
     27 N         -73.5973   29.3525  -75.4287 N.am      9 UNK        -0.4218 
     28 C         -72.7491   28.3319  -75.2528 C.2       9 UNK         0.5020 
     29 O         -72.4127   27.9086  -74.1446 O.2       9 UNK        -0.5274 
     30 CA        -72.2068   27.6701  -76.5372 C.3       8 UNK         0.0270 
     31 CB        -71.3579   26.4174  -76.2493 C.3       8 UNK        -0.1976 
     32 N         -73.2872   27.3242  -77.4705 N.am      8 UNK        -0.4313 
     33 C         -73.8911   28.1939  -78.2957 C.2       8 UNK         0.5041 
     34 O         -73.5663   29.3800  -78.3719 O.2       8 UNK        -0.5577 
     35 CA        -75.0733   27.6974  -79.1486 C.3       7 UNK         0.0284 
     36 CB        -74.6108   27.3826  -80.5800 C.3       7 UNK        -0.1958 
     37 N         -75.7650   26.5311  -78.5982 N.am      7 UNK        -0.4454 
     38 C         -76.4453   26.5111  -77.4439 C.2       7 UNK         0.5089 
     39 O         -76.5679   27.4872  -76.7036 O.2       7 UNK        -0.5125 
     40 CA        -77.0672   25.1670  -77.0157 C.3       6 UNK         0.0408 
     41 CB        -77.1258   24.1040  -78.1345 C.3       6 UNK        -0.1791 
     42 N         -76.3945   24.6205  -75.8351 N.am      6 UNK        -0.4762 
     43 C         -75.0753   24.4116  -75.6742 C.2       6 UNK         0.5007 
     44 O         -74.2286   24.6237  -76.5441 O.2       6 UNK        -0.5032 
     45 CA        -74.6326   23.8957  -74.2900 C.3       5 UNK         0.0783 
     46 C46       -74.3100   25.1099  -73.3744 C.3       11 UNK        -0.0857 
     47 S47       -74.2896   24.7596  -71.5810 S.3       11 UNK        -0.2512 
     48 C48       -75.9843   25.2313  -71.0880 C.3       11 UNK         0.0225 
     49 N         -75.6246   22.9868  -73.7088 N.am      5 UNK        -0.4615 
     50 C         -75.9870   21.7969  -74.2005 C.2       4 UNK         0.5053 
     51 O         -75.4907   21.2827  -75.2029 O.2       4 UNK        -0.5105 
     52 CA        -77.1083   21.0588  -73.4513 C.3       4 UNK         0.0263 
     53 CB        -77.1350   21.3489  -71.9328 C.3       4 UNK        -0.1981 
     54 N         -78.4254   21.3032  -74.0496 N.am      4 UNK        -0.4224 
     55 C         -79.0480   22.4798  -74.2198 C.2       3 UNK         0.4895 
     56 O         -78.5644   23.5799  -73.9293 O.2       3 UNK        -0.5091 
     57 CA        -80.4683   22.4010  -74.7957 C.3       3 UNK         0.0250 
     58 CB        -81.4090   21.6098  -73.8609 C.3       3 UNK        -0.1996 
     59 N         -80.9888   23.7525  -74.9890 N.am      3 UNK        -0.4254 
     60 C         -82.0130   24.0785  -75.7875 C.2       2 UNK         0.5004 
     61 O         -82.6160   23.2680  -76.4920 O.2       2 UNK        -0.5226 
     62 CA        -82.4410   25.5501  -75.8116 C.3       2 UNK         0.0269 
     63 CB        -83.3323   25.8888  -74.6028 C.3       2 UNK        -0.1926 
     64 N         -81.2860   26.4481  -75.8567 N.am      2 UNK        -0.4687 
     65 C         -81.2799   27.6305  -76.4824 C.2       1 UNK         0.5165 
     66 O         -82.2629   28.1102  -77.0546 O.2       1 UNK        -0.5079 
     67 H67       -79.1423   30.2116  -79.9520 H         1 UNK         0.0900 
     68 H68       -79.8639   28.9040  -80.8936 H         1 UNK         0.0900 
     69 H69       -78.1355   28.8836  -80.5326 H         1 UNK         0.0900 
     70 H70       -79.7224   30.0337  -77.7964 H         1 UNK         0.2959 
     71 H71       -79.1456   27.7247  -76.2488 H         1 UNK         0.1079 
     72 H72       -79.2434   30.2804  -75.5440 H         1 UNK         0.0837 
     73 H73       -80.9323   30.0014  -75.2607 H         1 UNK         0.0837 
     74 H74       -77.2843   28.8754  -74.4812 H         1 UNK         0.0685 
     75 H75       -77.7133   30.3241  -73.5962 H         1 UNK         0.0685 
     76 H76       -77.2382   26.6363  -73.0765 H         1 UNK         0.1434 
     77 H77       -75.2841   27.1536  -69.2935 H         1 UNK         0.1329 
     78 H78       -76.8557   30.5556  -71.3813 H         1 UNK         0.1335 
     79 H79       -75.9465   30.8587  -69.1780 H         1 UNK         0.0680 
     80 H80       -76.0121   29.4601  -68.1438 H         1 UNK         0.0680 
     81 H81       -72.5881   31.9214  -69.0894 H         1 UNK         0.1032 
     82 H82       -74.1022   32.0073  -69.9210 H         1 UNK         0.1032 
     83 H83       -72.1885   32.1011  -71.4387 H         1 UNK         0.0461 
     84 H84       -70.1035   28.7184  -71.5832 H         1 UNK         0.3453 
     85 H85       -71.6535   28.8988  -72.3663 H         1 UNK         0.3453 
     86 H86       -74.1580   29.9853  -71.8080 H         1 UNK         0.2984 
     87 H87       -74.8504   29.3912  -73.7900 H         1 UNK         0.0554 
     88 H88       -75.9640   30.6418  -75.6420 H         1 UNK         0.0847 
     89 H89       -74.6820   31.8498  -75.6263 H         1 UNK         0.0847 
     90 H90       -75.7574   31.6930  -74.2465 H         1 UNK         0.0847 
     91 H91       -73.7744   29.6403  -76.3859 H         1 UNK         0.3141 
     92 H92       -71.5517   28.4011  -77.0160 H         1 UNK         0.0743 
     93 H93       -70.4965   26.6657  -75.6278 H         1 UNK         0.0784 
     94 H94       -71.9275   25.6529  -75.7215 H         1 UNK         0.0784 
     95 H95       -70.9757   25.9759  -77.1697 H         1 UNK         0.0784 
     96 H96       -73.6562   26.3802  -77.3981 H         1 UNK         0.3213 
     97 H97       -75.7975   28.5136  -79.1958 H         1 UNK         0.0855 
     98 H98       -74.1170   28.2459  -81.0287 H         1 UNK         0.0814 
     99 H99       -75.4529   27.1245  -81.2225 H         1 UNK         0.0814 
    100 H100      -73.9018   26.5541  -80.6026 H         1 UNK         0.0814 
    101 H101      -75.6954   25.6716  -79.1228 H         1 UNK         0.3105 
    102 H102      -78.0934   25.3857  -76.7170 H         1 UNK         0.0547 
    103 H103      -77.6539   24.4840  -79.0105 H         1 UNK         0.0837 
    104 H104      -76.1348   23.7774  -78.4516 H         1 UNK         0.0837 
    105 H105      -77.6666   23.2193  -77.7982 H         1 UNK         0.0837 
    106 H106      -77.0030   24.3954  -75.0543 H         1 UNK         0.3020 
    107 H107      -73.7161   23.3189  -74.4342 H         1 UNK         0.1245 
    108 H108      -74.9856   25.9443  -73.5592 H         1 UNK         0.0781 
    109 H109      -73.3222   25.4918  -73.6340 H         1 UNK         0.0781 
    110 H110      -76.1536   24.8998  -70.0624 H         1 UNK         0.0836 
    111 H111      -76.7138   24.6984  -71.6982 H         1 UNK         0.0836 
    112 H112      -76.0984   23.3207  -72.8842 H         1 UNK         0.3022 
    113 H113      -76.9041   19.9937  -73.5733 H         1 UNK         0.0747 
    114 H114      -77.8123   20.6653  -71.4209 H         1 UNK         0.0793 
    115 H115      -76.1482   21.2128  -71.4875 H         1 UNK         0.0793 
    116 H116      -77.4653   22.3618  -71.7039 H         1 UNK         0.0793 
    117 H117      -78.9067   20.4718  -74.3635 H         1 UNK         0.3047 
    118 H118      -80.4069   21.9018  -75.7653 H         1 UNK         0.0822 
    119 H119      -82.4191   21.5500  -74.2663 H         1 UNK         0.0807 
    120 H120      -81.4742   22.0722  -72.8751 H         1 UNK         0.0807 
    121 H121      -81.0675   20.5842  -73.7186 H         1 UNK         0.0807 
    122 H122      -80.5117   24.4552  -74.4399 H         1 UNK         0.2946 
    123 H123      -83.0329   25.6829  -76.7210 H         1 UNK         0.1144 
    124 H124      -83.7291   26.9016  -74.6750 H         1 UNK         0.0793 
    125 H125      -82.7853   25.8106  -73.6626 H         1 UNK         0.0793 
    126 H126      -84.1853   25.2113  -74.5438 H         1 UNK         0.0793 
    127 H127      -80.4340   26.1179  -75.4283 H         1 UNK         0.2896 
@<TRIPOS>BOND
     1    1    2 1    
     2    1   67 1    
     3    1   68 1    
     4    1   69 1    
     5    2    3 2    
     6    2    4 am   BACKBONE|DICT|INTERRES
     7    4    5 1    
     8    4   70 1    
     9    5    6 1    
    10    5   65 1    
    11    5   71 1    
    12    6    7 1    
    13    6   72 1    
    14    6   73 1    
    15    7    8 1    
    16    8    9 1    
    17    8   74 1    
    18    8   75 1    
    19    9   10 ar   
    20    9   14 ar   
    21   10   11 ar   
    22   10   76 1    
    23   11   12 ar   
    24   11   48 1    
    25   12   13 ar   
    26   12   77 1    
    27   13   14 ar   
    28   13   15 1    
    29   14   78 1    
    30   15   16 1    
    31   15   79 1    
    32   15   80 1    
    33   16   17 1    
    34   17   18 1    
    35   17   81 1    
    36   17   82 1    
    37   18   19 1    
    38   18   22 1    
    39   18   83 1    
    40   19   20 am   BACKBONE|DICT|INTERRES
    41   19   21 2    
    42   20   84 1    
    43   20   85 1    
    44   22   23 am   BACKBONE|DICT|INTERRES
    45   22   86 1    
    46   23   24 2    
    47   23   25 1    
    48   25   26 1    
    49   25   27 1    
    50   25   87 1    
    51   26   88 1    
    52   26   89 1    
    53   26   90 1    
    54   27   28 am   BACKBONE|DICT|INTERRES
    55   27   91 1    
    56   28   29 2    
    57   28   30 1    
    58   30   31 1    
    59   30   32 1    
    60   30   92 1    
    61   31   93 1    
    62   31   94 1    
    63   31   95 1    
    64   32   33 am   BACKBONE|DICT|INTERRES
    65   32   96 1    
    66   33   34 2    
    67   33   35 1    
    68   35   36 1    
    69   35   37 1    
    70   35   97 1    
    71   36   98 1    
    72   36   99 1    
    73   36  100 1    
    74   37   38 am   BACKBONE|DICT|INTERRES
    75   37  101 1    
    76   38   39 2    
    77   38   40 1    
    78   40   41 1    
    79   40   42 1    
    80   40  102 1    
    81   41  103 1    
    82   41  104 1    
    83   41  105 1    
    84   42   43 am   BACKBONE|DICT|INTERRES
    85   42  106 1    
    86   43   44 2    
    87   43   45 1    
    88   45   46 1    
    89   45   49 1    
    90   45  107 1    
    91   46   47 1    
    92   46  108 1    
    93   46  109 1    
    94   47   48 1    
    95   48  110 1    
    96   48  111 1    
    97   49   50 am   BACKBONE|DICT|INTERRES
    98   49  112 1    
    99   50   51 2    
   100   50   52 1    
   101   52   53 1    
   102   52   54 1    
   103   52  113 1    
   104   53  114 1    
   105   53  115 1    
   106   53  116 1    
   107   54   55 am   BACKBONE|DICT|INTERRES
   108   54  117 1    
   109   55   56 2    
   110   55   57 1    
   111   57   58 1    
   112   57   59 1    
   113   57  118 1    
   114   58  119 1    
   115   58  120 1    
   116   58  121 1    
   117   59   60 am   BACKBONE|DICT|INTERRES
   118   59  122 1    
   119   60   61 2    
   120   60   62 1    
   121   62   63 1    
   122   62   64 1    
   123   62  123 1    
   124   63  124 1    
   125   63  125 1    
   126   63  126 1    
   127   64   65 am   BACKBONE|DICT|INTERRES
   128   64  127 1    
   129   65   66 2    
@<TRIPOS>SUBSTRUCTURE
     1 UNK         1 GROUP             0       ****    0 ROOT    
