@<TRIPOS>MOLECULE
3R135
127   129    1
SMALL
USER_CHARGES


@<TRIPOS>ATOM
      1 CA        -76.1281   27.6922  -72.9343 C.3       0 UNK        -0.1998 
      2 C         -76.9179   26.6578  -72.1513 C.2       0 UNK         0.4909 
      3 O         -76.3537   25.6520  -71.7231 O.2       0 UNK        -0.5240 
      4 N         -78.2160   26.8972  -71.9419 N.am      1 UNK        -0.4739 
      5 CA        -79.0950   26.0235  -71.1599 C.3       1 UNK         0.0864 
      6 C6        -80.2158   26.8197  -70.4477 C.3       11 UNK        -0.0881 
      7 S7        -79.5262   28.0275  -69.2619 S.3       11 UNK        -0.2682 
      8 C8        -80.3081   29.5859  -69.7818 C.3       11 UNK         0.0289 
      9 C9        -79.7310   30.1379  -71.0790 C.ar      11 UNK        -0.0687 
     10 C10       -80.3884   29.9099  -72.2913 C.ar      11 UNK        -0.0823 
     11 C11       -79.9150   30.4791  -73.4760 C.ar      11 UNK        -0.0830 
     12 C12       -78.7760   31.2885  -73.4428 C.ar      11 UNK        -0.1021 
     13 C13       -78.1096   31.5290  -72.2369 C.ar      11 UNK        -0.0753 
     14 C14       -78.5833   30.9388  -71.0597 C.ar      11 UNK        -0.0933 
     15 C15       -76.9315   32.4942  -72.2029 C.3       11 UNK         0.0166 
     16 S16       -75.4586   31.8325  -73.0407 S.3       11 UNK        -0.2615 
     17 C17       -74.7432   30.7819  -71.7323 C.3       11 UNK        -0.0865 
     18 CA        -73.3233   30.2504  -72.0813 C.3       10 UNK         0.0862 
     19 C         -72.7632   29.3388  -70.9471 C.2       10 UNK         0.5551 
     20 N         -72.2751   28.1353  -71.2260 N.am      10 UNK        -0.7319 
     21 O         -72.7687   29.7367  -69.7849 O.2       10 UNK        -0.5018 
     22 N         -73.2472   29.6657  -73.4339 N.am      10 UNK        -0.4509 
     23 C         -72.1255   29.5802  -74.1582 C.2       10 UNK         0.4899 
     24 O         -71.0313   30.0019  -73.7785 O.2       10 UNK        -0.4839 
     25 CA        -72.2584   28.8998  -75.5334 C.3       9 UNK         0.0222 
     26 CB        -70.9129   28.7958  -76.2813 C.3       9 UNK        -0.1966 
     27 N         -72.9030   27.5806  -75.4873 N.am      9 UNK        -0.4218 
     28 C         -72.5470   26.5147  -74.7520 C.2       9 UNK         0.5020 
     29 O         -71.7138   26.5535  -73.8456 O.2       9 UNK        -0.5274 
     30 CA        -73.1965   25.1609  -75.1014 C.3       8 UNK         0.0270 
     31 CB        -74.2810   24.7505  -74.0973 C.3       8 UNK        -0.1976 
     32 N         -73.7442   25.1053  -76.4594 N.am      8 UNK        -0.4313 
     33 C         -72.9973   24.9192  -77.5568 C.2       8 UNK         0.5041 
     34 O         -71.7777   24.7480  -77.5405 O.2       8 UNK        -0.5577 
     35 CA        -73.7372   24.9388  -78.9007 C.3       7 UNK         0.0284 
     36 CB        -74.5321   23.6391  -79.1100 C.3       7 UNK        -0.1958 
     37 N         -74.6253   26.0974  -79.0068 N.am      7 UNK        -0.4454 
     38 C         -74.2059   27.3449  -79.2638 C.2       7 UNK         0.5089 
     39 O         -73.0297   27.6443  -79.4687 O.2       7 UNK        -0.5125 
     40 CA        -75.2753   28.4506  -79.3090 C.3       6 UNK         0.0408 
     41 CB        -75.7263   28.6986  -80.7571 C.3       6 UNK        -0.1791 
     42 N         -76.4486   28.1613  -78.4809 N.am      6 UNK        -0.4762 
     43 C         -76.4575   28.1986  -77.1410 C.2       6 UNK         0.5007 
     44 O         -75.4732   28.4671  -76.4544 O.2       6 UNK        -0.5032 
     45 CA        -77.7815   27.8216  -76.4542 C.3       5 UNK         0.0783 
     46 C46       -78.7445   29.0303  -76.4211 C.3       11 UNK        -0.0857 
     47 S47       -80.2881   28.6523  -75.5262 S.3       11 UNK        -0.2512 
     48 C48       -80.6764   30.2618  -74.7748 C.3       11 UNK         0.0225 
     49 N         -78.3980   26.6291  -77.0438 N.am      5 UNK        -0.4615 
     50 C         -77.8443   25.4126  -77.0716 C.2       4 UNK         0.5053 
     51 O         -76.6905   25.1624  -76.7075 O.2       4 UNK        -0.5105 
     52 CA        -78.7261   24.2874  -77.6111 C.3       4 UNK         0.0263 
     53 CB        -78.4933   24.0611  -79.1146 C.3       4 UNK        -0.1981 
     54 N         -78.4146   23.0795  -76.8581 N.am      4 UNK        -0.4224 
     55 C         -79.2796   22.0980  -76.5826 C.2       3 UNK         0.4895 
     56 O         -80.4312   22.0574  -77.0155 O.2       3 UNK        -0.5091 
     57 CA        -78.7997   20.9825  -75.6385 C.3       3 UNK         0.0250 
     58 CB        -78.3818   19.7478  -76.4535 C.3       3 UNK        -0.1996 
     59 N         -77.6803   21.3806  -74.7749 N.am      3 UNK        -0.4254 
     60 C         -77.7060   22.1602  -73.6821 C.2       2 UNK         0.5004 
     61 O         -76.6727   22.4185  -73.0652 O.2       2 UNK        -0.5226 
     62 CA        -79.0389   22.7146  -73.1428 C.3       2 UNK         0.0269 
     63 CB        -79.7390   21.6803  -72.2380 C.3       2 UNK        -0.1926 
     64 N         -78.7571   23.9214  -72.3667 N.am      2 UNK        -0.4687 
     65 C         -79.6332   24.8788  -72.0430 C.2       1 UNK         0.5165 
     66 O         -80.8067   24.8832  -72.4197 O.2       1 UNK        -0.5079 
     67 H67       -75.1903   27.8835  -72.4173 H         1 UNK         0.0900 
     68 H68       -76.6745   28.6301  -73.0386 H         1 UNK         0.0900 
     69 H69       -75.8836   27.3256  -73.9275 H         1 UNK         0.0900 
     70 H70       -78.6434   27.7380  -72.3045 H         1 UNK         0.2959 
     71 H71       -78.5074   25.5480  -70.3702 H         1 UNK         0.1079 
     72 H72       -80.8584   27.3183  -71.1733 H         1 UNK         0.0837 
     73 H73       -80.8642   26.1429  -69.8879 H         1 UNK         0.0837 
     74 H74       -81.3856   29.4384  -69.8716 H         1 UNK         0.0685 
     75 H75       -80.1736   30.3212  -68.9870 H         1 UNK         0.0685 
     76 H76       -81.2884   29.3107  -72.3134 H         1 UNK         0.1434 
     77 H77       -78.4189   31.7565  -74.3501 H         1 UNK         0.1329 
     78 H78       -78.0845   31.1341  -70.1201 H         1 UNK         0.1335 
     79 H79       -76.6801   32.7729  -71.1784 H         1 UNK         0.0680 
     80 H80       -77.2242   33.4192  -72.7017 H         1 UNK         0.0680 
     81 H81       -75.4349   29.9706  -71.5114 H         1 UNK         0.1032 
     82 H82       -74.6930   31.3753  -70.8173 H         1 UNK         0.1032 
     83 H83       -72.6690   31.1245  -72.0845 H         1 UNK         0.0461 
     84 H84       -71.9172   27.5674  -70.4750 H         1 UNK         0.3453 
     85 H85       -72.2079   27.8030  -72.1801 H         1 UNK         0.3453 
     86 H86       -74.1089   29.3209  -73.8296 H         1 UNK         0.2984 
     87 H87       -72.9130   29.5391  -76.1276 H         1 UNK         0.0554 
     88 H88       -71.0453   28.3652  -77.2743 H         1 UNK         0.0847 
     89 H89       -70.1978   28.1751  -75.7401 H         1 UNK         0.0847 
     90 H90       -70.4591   29.7789  -76.4131 H         1 UNK         0.0847 
     91 H91       -73.6876   27.4774  -76.1208 H         1 UNK         0.3141 
     92 H92       -72.3978   24.4198  -75.0234 H         1 UNK         0.0743 
     93 H93       -75.2346   25.2314  -74.3039 H         1 UNK         0.0784 
     94 H94       -74.4529   23.6749  -74.1343 H         1 UNK         0.0784 
     95 H95       -73.9959   24.9933  -73.0726 H         1 UNK         0.0784 
     96 H96       -74.7522   25.2028  -76.5583 H         1 UNK         0.3213 
     97 H97       -72.9888   25.0033  -79.6942 H         1 UNK         0.0855 
     98 H98       -75.2839   23.4883  -78.3352 H         1 UNK         0.0814 
     99 H99       -73.8687   22.7735  -79.0871 H         1 UNK         0.0814 
    100 H100      -75.0353   23.6329  -80.0769 H         1 UNK         0.0814 
    101 H101      -75.6044   25.9495  -78.8110 H         1 UNK         0.3105 
    102 H102      -74.8139   29.3679  -78.9361 H         1 UNK         0.0547 
    103 H103      -74.8750   28.9447  -81.3935 H         1 UNK         0.0837 
    104 H104      -76.2104   27.8210  -81.1873 H         1 UNK         0.0837 
    105 H105      -76.4248   29.5332  -80.8187 H         1 UNK         0.0837 
    106 H106      -77.3029   27.9184  -78.9624 H         1 UNK         0.3020 
    107 H107      -77.5435   27.5657  -75.4224 H         1 UNK         0.1245 
    108 H108      -78.2559   29.8824  -75.9454 H         1 UNK         0.0781 
    109 H109      -79.0055   29.3510  -77.4315 H         1 UNK         0.0781 
    110 H110      -80.4728   31.0634  -75.4868 H         1 UNK         0.0836 
    111 H111      -81.7484   30.3040  -74.5761 H         1 UNK         0.0836 
    112 H112      -79.3507   26.7419  -77.3600 H         1 UNK         0.3022 
    113 H113      -79.7715   24.5578  -77.4447 H         1 UNK         0.0747 
    114 H114      -79.1524   23.2839  -79.5019 H         1 UNK         0.0793 
    115 H115      -78.6948   24.9687  -79.6849 H         1 UNK         0.0793 
    116 H116      -77.4680   23.7607  -79.3266 H         1 UNK         0.0793 
    117 H117      -77.4938   23.0721  -76.4371 H         1 UNK         0.3047 
    118 H118      -79.6480   20.6944  -75.0170 H         1 UNK         0.0822 
    119 H119      -78.1092   18.9162  -75.8033 H         1 UNK         0.0807 
    120 H120      -77.5316   19.9595  -77.1035 H         1 UNK         0.0807 
    121 H121      -79.1991   19.4036  -77.0892 H         1 UNK         0.0807 
    122 H122      -76.7788   21.0230  -75.0560 H         1 UNK         0.2946 
    123 H123      -79.6927   22.9865  -73.9718 H         1 UNK         0.1144 
    124 H124      -79.9213   20.7414  -72.7601 H         1 UNK         0.0793 
    125 H125      -80.7058   22.0448  -71.8904 H         1 UNK         0.0793 
    126 H126      -79.1360   21.4468  -71.3596 H         1 UNK         0.0793 
    127 H127      -77.7818   24.0333  -72.0991 H         1 UNK         0.2896 
@<TRIPOS>BOND
     1    1    2 1    
     2    1   67 1    
     3    1   68 1    
     4    1   69 1    
     5    2    3 2    
     6    2    4 am   BACKBONE|DICT|INTERRES
     7    4    5 1    
     8    4   70 1    
     9    5    6 1    
    10    5   65 1    
    11    5   71 1    
    12    6    7 1    
    13    6   72 1    
    14    6   73 1    
    15    7    8 1    
    16    8    9 1    
    17    8   74 1    
    18    8   75 1    
    19    9   10 ar   
    20    9   14 ar   
    21   10   11 ar   
    22   10   76 1    
    23   11   12 ar   
    24   11   48 1    
    25   12   13 ar   
    26   12   77 1    
    27   13   14 ar   
    28   13   15 1    
    29   14   78 1    
    30   15   16 1    
    31   15   79 1    
    32   15   80 1    
    33   16   17 1    
    34   17   18 1    
    35   17   81 1    
    36   17   82 1    
    37   18   19 1    
    38   18   22 1    
    39   18   83 1    
    40   19   20 am   BACKBONE|DICT|INTERRES
    41   19   21 2    
    42   20   84 1    
    43   20   85 1    
    44   22   23 am   BACKBONE|DICT|INTERRES
    45   22   86 1    
    46   23   24 2    
    47   23   25 1    
    48   25   26 1    
    49   25   27 1    
    50   25   87 1    
    51   26   88 1    
    52   26   89 1    
    53   26   90 1    
    54   27   28 am   BACKBONE|DICT|INTERRES
    55   27   91 1    
    56   28   29 2    
    57   28   30 1    
    58   30   31 1    
    59   30   32 1    
    60   30   92 1    
    61   31   93 1    
    62   31   94 1    
    63   31   95 1    
    64   32   33 am   BACKBONE|DICT|INTERRES
    65   32   96 1    
    66   33   34 2    
    67   33   35 1    
    68   35   36 1    
    69   35   37 1    
    70   35   97 1    
    71   36   98 1    
    72   36   99 1    
    73   36  100 1    
    74   37   38 am   BACKBONE|DICT|INTERRES
    75   37  101 1    
    76   38   39 2    
    77   38   40 1    
    78   40   41 1    
    79   40   42 1    
    80   40  102 1    
    81   41  103 1    
    82   41  104 1    
    83   41  105 1    
    84   42   43 am   BACKBONE|DICT|INTERRES
    85   42  106 1    
    86   43   44 2    
    87   43   45 1    
    88   45   46 1    
    89   45   49 1    
    90   45  107 1    
    91   46   47 1    
    92   46  108 1    
    93   46  109 1    
    94   47   48 1    
    95   48  110 1    
    96   48  111 1    
    97   49   50 am   BACKBONE|DICT|INTERRES
    98   49  112 1    
    99   50   51 2    
   100   50   52 1    
   101   52   53 1    
   102   52   54 1    
   103   52  113 1    
   104   53  114 1    
   105   53  115 1    
   106   53  116 1    
   107   54   55 am   BACKBONE|DICT|INTERRES
   108   54  117 1    
   109   55   56 2    
   110   55   57 1    
   111   57   58 1    
   112   57   59 1    
   113   57  118 1    
   114   58  119 1    
   115   58  120 1    
   116   58  121 1    
   117   59   60 am   BACKBONE|DICT|INTERRES
   118   59  122 1    
   119   60   61 2    
   120   60   62 1    
   121   62   63 1    
   122   62   64 1    
   123   62  123 1    
   124   63  124 1    
   125   63  125 1    
   126   63  126 1    
   127   64   65 am   BACKBONE|DICT|INTERRES
   128   64  127 1    
   129   65   66 2    
@<TRIPOS>SUBSTRUCTURE
     1 UNK         1 GROUP             0       ****    0 ROOT    
