@<TRIPOS>MOLECULE
3R135
127   129    1
SMALL
USER_CHARGES


@<TRIPOS>ATOM
      1 CA        -82.9063   31.9817  -76.3289 C.3       0 UNK        -0.1998 
      2 C         -81.9790   31.0285  -75.5898 C.2       0 UNK         0.4909 
      3 O         -81.0674   31.4776  -74.8944 O.2       0 UNK        -0.5240 
      4 N         -82.2041   29.7184  -75.7334 N.am      1 UNK        -0.4739 
      5 CA        -81.3993   28.6628  -75.1247 C.3       1 UNK         0.0864 
      6 C6        -81.7678   28.4212  -73.6346 C.3       11 UNK        -0.0881 
      7 S7        -80.5913   27.2968  -72.8149 S.3       11 UNK        -0.2682 
      8 C8        -79.5702   28.4841  -71.8813 C.3       11 UNK         0.0289 
      9 C9        -78.2324   27.8983  -71.4414 C.ar      11 UNK        -0.0687 
     10 C10       -78.1651   26.6518  -70.8122 C.ar      11 UNK        -0.0823 
     11 C11       -76.9345   26.1186  -70.4219 C.ar      11 UNK        -0.0830 
     12 C12       -75.7669   26.8566  -70.6281 C.ar      11 UNK        -0.1021 
     13 C13       -75.8128   28.1111  -71.2422 C.ar      11 UNK        -0.0753 
     14 C14       -77.0529   28.6187  -71.6561 C.ar      11 UNK        -0.0933 
     15 C15       -74.4943   28.8448  -71.4885 C.3       11 UNK         0.0166 
     16 S16       -74.6480   30.6449  -71.7672 S.3       11 UNK        -0.2615 
     17 C17       -73.2735   30.9123  -72.9335 C.3       11 UNK        -0.0865 
     18 CA        -73.6628   30.5035  -74.3841 C.3       10 UNK         0.0862 
     19 C         -74.4752   31.5587  -75.1822 C.2       10 UNK         0.5551 
     20 N         -75.0118   31.1658  -76.3304 N.am      10 UNK        -0.7319 
     21 O         -74.6130   32.7140  -74.7869 O.2       10 UNK        -0.5018 
     22 N         -72.5308   29.9813  -75.1581 N.am      10 UNK        -0.4509 
     23 C         -71.4019   30.6365  -75.4583 C.2       10 UNK         0.4899 
     24 O         -71.1584   31.7840  -75.0823 O.2       10 UNK        -0.4839 
     25 CA        -70.3714   29.8916  -76.3357 C.3       9 UNK         0.0222 
     26 CB        -68.9185   30.3049  -76.0174 C.3       9 UNK        -0.1966 
     27 N         -70.5127   28.4283  -76.3202 N.am      9 UNK        -0.4218 
     28 C         -70.3964   27.5962  -75.2746 C.2       9 UNK         0.5020 
     29 O         -70.1123   27.9615  -74.1326 O.2       9 UNK        -0.5274 
     30 CA        -70.6841   26.1083  -75.5625 C.3       8 UNK         0.0270 
     31 CB        -70.5597   25.2237  -74.3074 C.3       8 UNK        -0.1976 
     32 N         -72.0135   25.9140  -76.1517 N.am      8 UNK        -0.4313 
     33 C         -72.3359   26.1424  -77.4340 C.2       8 UNK         0.5041 
     34 O         -71.5276   26.5585  -78.2655 O.2       8 UNK        -0.5577 
     35 CA        -73.7939   25.9043  -77.8647 C.3       7 UNK         0.0284 
     36 CB        -73.9213   24.5665  -78.6099 C.3       7 UNK        -0.1958 
     37 N         -74.7356   25.9383  -76.7423 N.am      7 UNK        -0.4454 
     38 C         -75.1090   27.0644  -76.1143 C.2       7 UNK         0.5089 
     39 O         -74.7330   28.1856  -76.4599 O.2       7 UNK        -0.5125 
     40 CA        -76.0320   26.9329  -74.8881 C.3       6 UNK         0.0408 
     41 CB        -77.4640   27.3503  -75.2500 C.3       6 UNK        -0.1791 
     42 N         -76.0367   25.5890  -74.2990 N.am      6 UNK        -0.4762 
     43 C         -74.9943   25.0586  -73.6371 C.2       6 UNK         0.5007 
     44 O         -73.9506   25.6779  -73.4293 O.2       6 UNK        -0.5032 
     45 CA        -75.0681   23.5755  -73.2070 C.3       5 UNK         0.0783 
     46 C46       -75.2140   23.3900  -71.6725 C.3       11 UNK        -0.0857 
     47 S47       -76.9340   23.4302  -71.0504 S.3       11 UNK        -0.2512 
     48 C48       -76.8727   24.7397  -69.7882 C.3       11 UNK         0.0225 
     49 N         -76.0489   22.7888  -73.9600 N.am      5 UNK        -0.4615 
     50 C         -75.9981   22.5401  -75.2739 C.2       4 UNK         0.5053 
     51 O         -75.0782   22.9149  -75.9994 O.2       4 UNK        -0.5105 
     52 CA        -77.1940   21.7929  -75.8903 C.3       4 UNK         0.0263 
     53 CB        -76.9096   20.2837  -75.9472 C.3       4 UNK        -0.1981 
     54 N         -78.4705   22.0245  -75.2001 N.am      4 UNK        -0.4224 
     55 C         -79.0566   23.2216  -75.0569 C.2       3 UNK         0.4895 
     56 O         -78.5514   24.2804  -75.4336 O.2       3 UNK        -0.5091 
     57 CA        -80.4063   23.2437  -74.3236 C.3       3 UNK         0.0250 
     58 CB        -80.1957   23.5195  -72.8265 C.3       3 UNK        -0.1996 
     59 N         -81.2962   24.2639  -74.8812 N.am      3 UNK        -0.4254 
     60 C         -81.9069   24.1680  -76.0715 C.2       2 UNK         0.5004 
     61 O         -81.8212   23.1794  -76.8019 O.2       2 UNK        -0.5226 
     62 CA        -82.7859   25.3496  -76.5231 C.3       2 UNK         0.0269 
     63 CB        -84.2755   24.9908  -76.3890 C.3       2 UNK        -0.1926 
     64 N         -82.5296   26.5872  -75.7806 N.am      2 UNK        -0.4687 
     65 C         -81.5128   27.4241  -76.0287 C.2       1 UNK         0.5165 
     66 O         -80.7098   27.2691  -76.9492 O.2       1 UNK        -0.5079 
     67 H67       -83.4105   32.6386  -75.6206 H         1 UNK         0.0900 
     68 H68       -83.6680   31.4503  -76.8994 H         1 UNK         0.0900 
     69 H69       -82.3347   32.6003  -77.0203 H         1 UNK         0.0900 
     70 H70       -82.9455   29.3989  -76.3431 H         1 UNK         0.2959 
     71 H71       -80.3515   28.9716  -75.1654 H         1 UNK         0.1079 
     72 H72       -82.7784   28.0254  -73.5255 H         1 UNK         0.0837 
     73 H73       -81.7757   29.3698  -73.0955 H         1 UNK         0.0837 
     74 H74       -80.1220   28.8187  -71.0020 H         1 UNK         0.0685 
     75 H75       -79.4052   29.3663  -72.5024 H         1 UNK         0.0685 
     76 H76       -79.0704   26.0841  -70.6462 H         1 UNK         0.1434 
     77 H77       -74.8130   26.4438  -70.3296 H         1 UNK         0.1329 
     78 H78       -77.1094   29.5752  -72.1549 H         1 UNK         0.1335 
     79 H79       -73.8240   28.6935  -70.6410 H         1 UNK         0.0680 
     80 H80       -74.0114   28.3741  -72.3458 H         1 UNK         0.0680 
     81 H81       -72.9489   31.9533  -72.8866 H         1 UNK         0.1032 
     82 H82       -72.4212   30.3253  -72.5866 H         1 UNK         0.1032 
     83 H83       -74.3313   29.6478  -74.2990 H         1 UNK         0.0461 
     84 H84       -75.5414   31.8178  -76.8864 H         1 UNK         0.3453 
     85 H85       -74.9140   30.1996  -76.6240 H         1 UNK         0.3453 
     86 H86       -72.6748   29.0669  -75.5623 H         1 UNK         0.2984 
     87 H87       -70.5810   30.1977  -77.3615 H         1 UNK         0.0554 
     88 H88       -68.2073   29.7829  -76.6574 H         1 UNK         0.0847 
     89 H89       -68.6557   30.0931  -74.9805 H         1 UNK         0.0847 
     90 H90       -68.7697   31.3735  -76.1771 H         1 UNK         0.0847 
     91 H91       -70.7748   27.9969  -77.2048 H         1 UNK         0.3141 
     92 H92       -69.9322   25.7696  -76.2786 H         1 UNK         0.0743 
     93 H93       -69.5575   25.2897  -73.8818 H         1 UNK         0.0784 
     94 H94       -71.2630   25.5238  -73.5297 H         1 UNK         0.0784 
     95 H95       -70.7432   24.1746  -74.5397 H         1 UNK         0.0784 
     96 H96       -72.7477   25.6352  -75.5140 H         1 UNK         0.3213 
     97 H97       -74.0644   26.7031  -78.5590 H         1 UNK         0.0855 
     98 H98       -73.5845   23.7286  -77.9989 H         1 UNK         0.0814 
     99 H99       -73.3135   24.5688  -79.5157 H         1 UNK         0.0814 
    100 H100      -74.9509   24.3721  -78.9108 H         1 UNK         0.0814 
    101 H101      -75.0733   25.0455  -76.4000 H         1 UNK         0.3105 
    102 H102      -75.6663   27.6262  -74.1298 H         1 UNK         0.0547 
    103 H103      -77.8684   26.7520  -76.0671 H         1 UNK         0.0837 
    104 H104      -78.1317   27.2451  -74.3968 H         1 UNK         0.0837 
    105 H105      -77.4983   28.3942  -75.5638 H         1 UNK         0.0837 
    106 H106      -76.8593   25.0205  -74.4758 H         1 UNK         0.3020 
    107 H107      -74.0893   23.1692  -73.4738 H         1 UNK         0.1245 
    108 H108      -74.5960   24.1081  -71.1308 H         1 UNK         0.0781 
    109 H109      -74.8120   22.4129  -71.4004 H         1 UNK         0.0781 
    110 H110      -75.9771   24.6276  -69.1751 H         1 UNK         0.0836 
    111 H111      -77.7191   24.6136  -69.1114 H         1 UNK         0.0836 
    112 H112      -76.8481   22.4680  -73.4328 H         1 UNK         0.3022 
    113 H113      -77.3065   22.1581  -76.9134 H         1 UNK         0.0747 
    114 H114      -77.6999   19.7496  -76.4751 H         1 UNK         0.0793 
    115 H115      -75.9769   20.0823  -76.4764 H         1 UNK         0.0793 
    116 H116      -76.8181   19.8515  -74.9499 H         1 UNK         0.0793 
    117 H117      -78.9447   21.2060  -74.8454 H         1 UNK         0.3047 
    118 H118      -80.8912   22.2713  -74.4350 H         1 UNK         0.0822 
    119 H119      -79.6379   22.7088  -72.3568 H         1 UNK         0.0807 
    120 H120      -81.1445   23.6066  -72.2969 H         1 UNK         0.0807 
    121 H121      -79.6320   24.4386  -72.6605 H         1 UNK         0.0807 
    122 H122      -81.3759   25.1285  -74.3658 H         1 UNK         0.2946 
    123 H123      -82.5709   25.5219  -77.5807 H         1 UNK         0.1144 
    124 H124      -84.5136   24.0907  -76.9578 H         1 UNK         0.0793 
    125 H125      -84.9123   25.7892  -76.7705 H         1 UNK         0.0793 
    126 H126      -84.5547   24.8033  -75.3514 H         1 UNK         0.0793 
    127 H127      -83.1555   26.7938  -75.0154 H         1 UNK         0.2896 
@<TRIPOS>BOND
     1    1    2 1    
     2    1   67 1    
     3    1   68 1    
     4    1   69 1    
     5    2    3 2    
     6    2    4 am   BACKBONE|DICT|INTERRES
     7    4    5 1    
     8    4   70 1    
     9    5    6 1    
    10    5   65 1    
    11    5   71 1    
    12    6    7 1    
    13    6   72 1    
    14    6   73 1    
    15    7    8 1    
    16    8    9 1    
    17    8   74 1    
    18    8   75 1    
    19    9   10 ar   
    20    9   14 ar   
    21   10   11 ar   
    22   10   76 1    
    23   11   12 ar   
    24   11   48 1    
    25   12   13 ar   
    26   12   77 1    
    27   13   14 ar   
    28   13   15 1    
    29   14   78 1    
    30   15   16 1    
    31   15   79 1    
    32   15   80 1    
    33   16   17 1    
    34   17   18 1    
    35   17   81 1    
    36   17   82 1    
    37   18   19 1    
    38   18   22 1    
    39   18   83 1    
    40   19   20 am   BACKBONE|DICT|INTERRES
    41   19   21 2    
    42   20   84 1    
    43   20   85 1    
    44   22   23 am   BACKBONE|DICT|INTERRES
    45   22   86 1    
    46   23   24 2    
    47   23   25 1    
    48   25   26 1    
    49   25   27 1    
    50   25   87 1    
    51   26   88 1    
    52   26   89 1    
    53   26   90 1    
    54   27   28 am   BACKBONE|DICT|INTERRES
    55   27   91 1    
    56   28   29 2    
    57   28   30 1    
    58   30   31 1    
    59   30   32 1    
    60   30   92 1    
    61   31   93 1    
    62   31   94 1    
    63   31   95 1    
    64   32   33 am   BACKBONE|DICT|INTERRES
    65   32   96 1    
    66   33   34 2    
    67   33   35 1    
    68   35   36 1    
    69   35   37 1    
    70   35   97 1    
    71   36   98 1    
    72   36   99 1    
    73   36  100 1    
    74   37   38 am   BACKBONE|DICT|INTERRES
    75   37  101 1    
    76   38   39 2    
    77   38   40 1    
    78   40   41 1    
    79   40   42 1    
    80   40  102 1    
    81   41  103 1    
    82   41  104 1    
    83   41  105 1    
    84   42   43 am   BACKBONE|DICT|INTERRES
    85   42  106 1    
    86   43   44 2    
    87   43   45 1    
    88   45   46 1    
    89   45   49 1    
    90   45  107 1    
    91   46   47 1    
    92   46  108 1    
    93   46  109 1    
    94   47   48 1    
    95   48  110 1    
    96   48  111 1    
    97   49   50 am   BACKBONE|DICT|INTERRES
    98   49  112 1    
    99   50   51 2    
   100   50   52 1    
   101   52   53 1    
   102   52   54 1    
   103   52  113 1    
   104   53  114 1    
   105   53  115 1    
   106   53  116 1    
   107   54   55 am   BACKBONE|DICT|INTERRES
   108   54  117 1    
   109   55   56 2    
   110   55   57 1    
   111   57   58 1    
   112   57   59 1    
   113   57  118 1    
   114   58  119 1    
   115   58  120 1    
   116   58  121 1    
   117   59   60 am   BACKBONE|DICT|INTERRES
   118   59  122 1    
   119   60   61 2    
   120   60   62 1    
   121   62   63 1    
   122   62   64 1    
   123   62  123 1    
   124   63  124 1    
   125   63  125 1    
   126   63  126 1    
   127   64   65 am   BACKBONE|DICT|INTERRES
   128   64  127 1    
   129   65   66 2    
@<TRIPOS>SUBSTRUCTURE
     1 UNK         1 GROUP             0       ****    0 ROOT    
