@<TRIPOS>MOLECULE
3R135
127   129    1
SMALL
USER_CHARGES


@<TRIPOS>ATOM
      1 CA        -84.6639   27.4779  -75.9176 C.3       0 UNK        -0.1998 
      2 C         -83.1674   27.4907  -76.1900 C.2       0 UNK         0.4909 
      3 O         -82.7550   27.4762  -77.3497 O.2       0 UNK        -0.5240 
      4 N         -82.3496   27.5128  -75.1295 N.am      1 UNK        -0.4739 
      5 CA        -80.8821   27.5132  -75.2009 C.3       1 UNK         0.0864 
      6 C6        -80.2496   28.1829  -73.9584 C.3       11 UNK        -0.0881 
      7 S7        -80.6779   27.3825  -72.3717 S.3       11 UNK        -0.2682 
      8 C8        -80.4085   28.7464  -71.1967 C.3       11 UNK         0.0289 
      9 C9        -78.9411   29.1429  -71.1019 C.ar      11 UNK        -0.0687 
     10 C10       -78.4320   30.1498  -71.9269 C.ar      11 UNK        -0.0823 
     11 C11       -77.0927   30.5341  -71.8329 C.ar      11 UNK        -0.0830 
     12 C12       -76.2620   29.9179  -70.8918 C.ar      11 UNK        -0.1021 
     13 C13       -76.7568   28.9077  -70.0618 C.ar      11 UNK        -0.0753 
     14 C14       -78.0977   28.5220  -70.1745 C.ar      11 UNK        -0.0933 
     15 C15       -75.8501   28.2441  -69.0344 C.3       11 UNK         0.0166 
     16 S16       -74.6246   27.1452  -69.8168 S.3       11 UNK        -0.2615 
     17 C17       -73.0598   28.0520  -69.5351 C.3       11 UNK        -0.0865 
     18 CA        -71.9647   27.8000  -70.6078 C.3       10 UNK         0.0862 
     19 C         -71.4291   26.3384  -70.5793 C.2       10 UNK         0.5551 
     20 N         -70.5677   26.0197  -69.6219 N.am      10 UNK        -0.7319 
     21 O         -71.8024   25.4889  -71.3852 O.2       10 UNK        -0.5018 
     22 N         -72.4009   28.2673  -71.9304 N.am      10 UNK        -0.4509 
     23 C         -71.6232   28.3810  -73.0139 C.2       10 UNK         0.4899 
     24 O         -70.4165   28.1291  -73.0418 O.2       10 UNK        -0.4839 
     25 CA        -72.3075   28.9600  -74.2627 C.3       9 UNK         0.0222 
     26 CB        -71.9591   30.4500  -74.4154 C.3       9 UNK        -0.1966 
     27 N         -71.9689   28.2625  -75.5049 N.am      9 UNK        -0.4218 
     28 C         -72.2450   26.9788  -75.7623 C.2       9 UNK         0.5020 
     29 O         -72.7338   26.1977  -74.9453 O.2       9 UNK        -0.5274 
     30 CA        -71.9681   26.4874  -77.1859 C.3       8 UNK         0.0270 
     31 CB        -70.8302   25.4479  -77.2010 C.3       8 UNK        -0.1976 
     32 N         -73.2101   25.9147  -77.7020 N.am      8 UNK        -0.4313 
     33 C         -73.4752   25.6311  -78.9826 C.2       8 UNK         0.5041 
     34 O         -72.6879   25.8371  -79.9074 O.2       8 UNK        -0.5577 
     35 CA        -74.8512   25.0228  -79.2905 C.3       7 UNK         0.0284 
     36 CB        -75.0015   23.6352  -78.6408 C.3       7 UNK        -0.1958 
     37 N         -75.9236   25.8973  -78.8169 N.am      7 UNK        -0.4454 
     38 C         -76.8006   26.5468  -79.5942 C.2       7 UNK         0.5089 
     39 O         -76.8057   26.4803  -80.8242 O.2       7 UNK        -0.5125 
     40 CA        -77.8718   27.4090  -78.8932 C.3       6 UNK         0.0408 
     41 CB        -79.2161   26.6648  -78.8733 C.3       6 UNK        -0.1791 
     42 N         -77.4946   27.8119  -77.5304 N.am      6 UNK        -0.4762 
     43 C         -76.5706   28.7539  -77.2792 C.2       6 UNK         0.5007 
     44 O         -76.0661   29.4400  -78.1694 O.2       6 UNK        -0.5032 
     45 CA        -76.0741   28.9737  -75.8298 C.3       5 UNK         0.0783 
     46 C46       -76.5611   30.3370  -75.2724 C.3       11 UNK        -0.0857 
     47 S47       -75.4252   30.9745  -73.9960 S.3       11 UNK        -0.2512 
     48 C48       -76.5467   31.6345  -72.7276 C.3       11 UNK         0.0225 
     49 N         -76.3123   27.8832  -74.8714 N.am      5 UNK        -0.4615 
     50 C         -75.9654   26.5970  -75.0170 C.2       4 UNK         0.5053 
     51 O         -75.5240   26.1270  -76.0663 O.2       4 UNK        -0.5105 
     52 CA        -76.1408   25.6608  -73.8147 C.3       4 UNK         0.0263 
     53 CB        -76.9057   26.2719  -72.6272 C.3       4 UNK        -0.1981 
     54 N         -76.8272   24.4650  -74.2848 N.am      4 UNK        -0.4224 
     55 C         -76.6236   23.2150  -73.8540 C.2       3 UNK         0.4895 
     56 O         -75.8316   22.9232  -72.9563 O.2       3 UNK        -0.5091 
     57 CA        -77.4171   22.0928  -74.5610 C.3       3 UNK         0.0250 
     58 CB        -77.7644   20.9229  -73.6147 C.3       3 UNK        -0.1996 
     59 N         -78.6096   22.5667  -75.2807 N.am      3 UNK        -0.4254 
     60 C         -79.6950   23.1509  -74.7511 C.2       2 UNK         0.5004 
     61 O         -79.8942   23.2970  -73.5434 O.2       2 UNK        -0.5226 
     62 CA        -80.7309   23.6801  -75.7555 C.3       2 UNK         0.0269 
     63 CB        -81.9927   22.8020  -75.7533 C.3       2 UNK        -0.1926 
     64 N         -81.1066   25.0664  -75.4724 N.am      2 UNK        -0.4687 
     65 C         -80.2757   26.1200  -75.4862 C.2       1 UNK         0.5165 
     66 O         -79.0712   26.0336  -75.7387 O.2       1 UNK        -0.5079 
     67 H67       -84.8845   27.4921  -74.8504 H         1 UNK         0.0900 
     68 H68       -85.1156   26.5835  -76.3458 H         1 UNK         0.0900 
     69 H69       -85.1349   28.3488  -76.3726 H         1 UNK         0.0900 
     70 H70       -82.7348   27.5181  -74.1947 H         1 UNK         0.2959 
     71 H71       -80.5976   28.1258  -76.0597 H         1 UNK         0.1079 
     72 H72       -80.5777   29.2225  -73.9205 H         1 UNK         0.0837 
     73 H73       -79.1637   28.2214  -74.0543 H         1 UNK         0.0837 
     74 H74       -81.0175   29.6041  -71.4866 H         1 UNK         0.0685 
     75 H75       -80.7706   28.4380  -70.2148 H         1 UNK         0.0685 
     76 H76       -79.0815   30.6393  -72.6391 H         1 UNK         0.1434 
     77 H77       -75.2275   30.2217  -70.8098 H         1 UNK         0.1329 
     78 H78       -78.4892   27.7412  -69.5370 H         1 UNK         0.1335 
     79 H79       -76.4417   27.6508  -68.3355 H         1 UNK         0.0680 
     80 H80       -75.3571   29.0081  -68.4321 H         1 UNK         0.0680 
     81 H81       -72.6870   27.7917  -68.5428 H         1 UNK         0.1032 
     82 H82       -73.2698   29.1217  -69.4928 H         1 UNK         0.1032 
     83 H83       -71.1170   28.4362  -70.3443 H         1 UNK         0.0461 
     84 H84       -70.2164   25.0759  -69.5753 H         1 UNK         0.3453 
     85 H85       -70.2550   26.7030  -68.9498 H         1 UNK         0.3453 
     86 H86       -73.3867   28.4645  -72.0145 H         1 UNK         0.2984 
     87 H87       -73.3864   28.8680  -74.1307 H         1 UNK         0.0554 
     88 H88       -72.4977   30.9032  -75.2479 H         1 UNK         0.0847 
     89 H89       -70.8916   30.6006  -74.5816 H         1 UNK         0.0847 
     90 H90       -72.2299   31.0078  -73.5178 H         1 UNK         0.0847 
     91 H91       -71.5262   28.8167  -76.2235 H         1 UNK         0.3141 
     92 H92       -71.6876   27.3353  -77.8143 H         1 UNK         0.0743 
     93 H93       -71.0909   24.5600  -76.6234 H         1 UNK         0.0784 
     94 H94       -70.5909   25.1287  -78.2153 H         1 UNK         0.0784 
     95 H95       -69.9182   25.8626  -76.7696 H         1 UNK         0.0784 
     96 H96       -73.9363   25.7770  -76.9987 H         1 UNK         0.3213 
     97 H97       -74.9160   24.8925  -80.3730 H         1 UNK         0.0855 
     98 H98       -74.9881   23.6882  -77.5512 H         1 UNK         0.0814 
     99 H99       -74.1921   22.9709  -78.9467 H         1 UNK         0.0814 
    100 H100      -75.9377   23.1625  -78.9380 H         1 UNK         0.0814 
    101 H101      -75.9622   26.0485  -77.8101 H         1 UNK         0.3105 
    102 H102      -78.0077   28.3120  -79.4923 H         1 UNK         0.0547 
    103 H103      -79.5531   26.4484  -79.8878 H         1 UNK         0.0837 
    104 H104      -79.1428   25.7108  -78.3512 H         1 UNK         0.0837 
    105 H105      -79.9966   27.2577  -78.3973 H         1 UNK         0.0837 
    106 H106      -77.8631   27.2522  -76.7666 H         1 UNK         0.3020 
    107 H107      -74.9892   29.0298  -75.9413 H         1 UNK         0.1245 
    108 H108      -77.5751   30.2537  -74.8783 H         1 UNK         0.0781 
    109 H109      -76.6029   31.0989  -76.0536 H         1 UNK         0.0781 
    110 H110      -77.3508   32.1979  -73.2038 H         1 UNK         0.0836 
    111 H111      -75.9976   32.3504  -72.1143 H         1 UNK         0.0836 
    112 H112      -76.6761   28.1704  -73.9746 H         1 UNK         0.3022 
    113 H113      -75.1335   25.3987  -73.4833 H         1 UNK         0.0747 
    114 H114      -76.9453   25.5778  -71.7877 H         1 UNK         0.0793 
    115 H115      -76.4188   27.1764  -72.2650 H         1 UNK         0.0793 
    116 H116      -77.9313   26.5204  -72.8943 H         1 UNK         0.0793 
    117 H117      -77.4918   24.6270  -75.0323 H         1 UNK         0.3047 
    118 H118      -76.7456   21.7009  -75.3265 H         1 UNK         0.0822 
    119 H119      -78.3156   20.1401  -74.1358 H         1 UNK         0.0807 
    120 H120      -78.3667   21.2513  -72.7672 H         1 UNK         0.0807 
    121 H121      -76.8609   20.4652  -73.2099 H         1 UNK         0.0807 
    122 H122      -78.5555   22.4912  -76.2874 H         1 UNK         0.2946 
    123 H123      -80.2987   23.6591  -76.7584 H         1 UNK         0.1144 
    124 H124      -82.7126   23.1375  -76.5001 H         1 UNK         0.0793 
    125 H125      -82.4874   22.8102  -74.7810 H         1 UNK         0.0793 
    126 H126      -81.7467   21.7646  -75.9846 H         1 UNK         0.0793 
    127 H127      -82.0705   25.2354  -75.2271 H         1 UNK         0.2896 
@<TRIPOS>BOND
     1    1    2 1    
     2    1   67 1    
     3    1   68 1    
     4    1   69 1    
     5    2    3 2    
     6    2    4 am   BACKBONE|DICT|INTERRES
     7    4    5 1    
     8    4   70 1    
     9    5    6 1    
    10    5   65 1    
    11    5   71 1    
    12    6    7 1    
    13    6   72 1    
    14    6   73 1    
    15    7    8 1    
    16    8    9 1    
    17    8   74 1    
    18    8   75 1    
    19    9   10 ar   
    20    9   14 ar   
    21   10   11 ar   
    22   10   76 1    
    23   11   12 ar   
    24   11   48 1    
    25   12   13 ar   
    26   12   77 1    
    27   13   14 ar   
    28   13   15 1    
    29   14   78 1    
    30   15   16 1    
    31   15   79 1    
    32   15   80 1    
    33   16   17 1    
    34   17   18 1    
    35   17   81 1    
    36   17   82 1    
    37   18   19 1    
    38   18   22 1    
    39   18   83 1    
    40   19   20 am   BACKBONE|DICT|INTERRES
    41   19   21 2    
    42   20   84 1    
    43   20   85 1    
    44   22   23 am   BACKBONE|DICT|INTERRES
    45   22   86 1    
    46   23   24 2    
    47   23   25 1    
    48   25   26 1    
    49   25   27 1    
    50   25   87 1    
    51   26   88 1    
    52   26   89 1    
    53   26   90 1    
    54   27   28 am   BACKBONE|DICT|INTERRES
    55   27   91 1    
    56   28   29 2    
    57   28   30 1    
    58   30   31 1    
    59   30   32 1    
    60   30   92 1    
    61   31   93 1    
    62   31   94 1    
    63   31   95 1    
    64   32   33 am   BACKBONE|DICT|INTERRES
    65   32   96 1    
    66   33   34 2    
    67   33   35 1    
    68   35   36 1    
    69   35   37 1    
    70   35   97 1    
    71   36   98 1    
    72   36   99 1    
    73   36  100 1    
    74   37   38 am   BACKBONE|DICT|INTERRES
    75   37  101 1    
    76   38   39 2    
    77   38   40 1    
    78   40   41 1    
    79   40   42 1    
    80   40  102 1    
    81   41  103 1    
    82   41  104 1    
    83   41  105 1    
    84   42   43 am   BACKBONE|DICT|INTERRES
    85   42  106 1    
    86   43   44 2    
    87   43   45 1    
    88   45   46 1    
    89   45   49 1    
    90   45  107 1    
    91   46   47 1    
    92   46  108 1    
    93   46  109 1    
    94   47   48 1    
    95   48  110 1    
    96   48  111 1    
    97   49   50 am   BACKBONE|DICT|INTERRES
    98   49  112 1    
    99   50   51 2    
   100   50   52 1    
   101   52   53 1    
   102   52   54 1    
   103   52  113 1    
   104   53  114 1    
   105   53  115 1    
   106   53  116 1    
   107   54   55 am   BACKBONE|DICT|INTERRES
   108   54  117 1    
   109   55   56 2    
   110   55   57 1    
   111   57   58 1    
   112   57   59 1    
   113   57  118 1    
   114   58  119 1    
   115   58  120 1    
   116   58  121 1    
   117   59   60 am   BACKBONE|DICT|INTERRES
   118   59  122 1    
   119   60   61 2    
   120   60   62 1    
   121   62   63 1    
   122   62   64 1    
   123   62  123 1    
   124   63  124 1    
   125   63  125 1    
   126   63  126 1    
   127   64   65 am   BACKBONE|DICT|INTERRES
   128   64  127 1    
   129   65   66 2    
@<TRIPOS>SUBSTRUCTURE
     1 UNK         1 GROUP             0       ****    0 ROOT    
