@<TRIPOS>MOLECULE
3R135
127   129    1
SMALL
USER_CHARGES


@<TRIPOS>ATOM
      1 CA        -82.9903   27.0438  -75.2974 C.3       0 UNK        -0.1998 
      2 C         -81.7097   26.6109  -74.6007 C.2       0 UNK         0.4909 
      3 O         -80.7028   26.3811  -75.2652 O.2       0 UNK        -0.5240 
      4 N         -81.7372   26.5030  -73.2671 N.am      1 UNK        -0.4739 
      5 CA        -80.6071   26.0676  -72.4403 C.3       1 UNK         0.0864 
      6 C6        -80.9014   26.3391  -70.9453 C.3       11 UNK        -0.0881 
      7 S7        -79.3973   26.3873  -69.9150 S.3       11 UNK        -0.2682 
      8 C8        -79.1674   28.1765  -69.6733 C.3       11 UNK         0.0289 
      9 C9        -78.4331   28.8167  -70.8421 C.ar      11 UNK        -0.0687 
     10 C10       -79.1330   29.4752  -71.8585 C.ar      11 UNK        -0.0823 
     11 C11       -78.4437   30.1078  -72.8997 C.ar      11 UNK        -0.0830 
     12 C12       -77.0456   30.0596  -72.9272 C.ar      11 UNK        -0.1021 
     13 C13       -76.3359   29.4055  -71.9147 C.ar      11 UNK        -0.0753 
     14 C14       -77.0372   28.7835  -70.8790 C.ar      11 UNK        -0.0933 
     15 C15       -74.8141   29.3635  -71.9258 C.3       11 UNK         0.0166 
     16 S16       -74.0683   31.0238  -71.8727 S.3       11 UNK        -0.2615 
     17 C17       -73.4612   31.1781  -73.5896 C.3       11 UNK        -0.0865 
     18 CA        -71.9703   30.7751  -73.8094 C.3       10 UNK         0.0862 
     19 C         -70.8928   31.7475  -73.2360 C.2       10 UNK         0.5551 
     20 N         -71.2711   32.8883  -72.6743 N.am      10 UNK        -0.7319 
     21 O         -69.6953   31.4981  -73.3636 O.2       10 UNK        -0.5018 
     22 N         -71.7101   29.3442  -73.5635 N.am      10 UNK        -0.4509 
     23 C         -71.3372   28.7471  -72.4226 C.2       10 UNK         0.4899 
     24 O         -71.1919   29.3263  -71.3451 O.2       10 UNK        -0.4839 
     25 CA        -71.0949   27.2246  -72.5060 C.3       9 UNK         0.0222 
     26 CB        -70.4653   26.6558  -71.2197 C.3       9 UNK        -0.1966 
     27 N         -72.3136   26.4656  -72.8086 N.am      9 UNK        -0.4218 
     28 C         -72.9058   26.3956  -74.0076 C.2       9 UNK         0.5020 
     29 O         -72.5127   27.0248  -74.9941 O.2       9 UNK        -0.5274 
     30 CA        -74.1486   25.4865  -74.1019 C.3       8 UNK         0.0270 
     31 CB        -75.3860   26.1898  -73.5181 C.3       8 UNK        -0.1976 
     32 N         -74.4499   25.1138  -75.4824 N.am      8 UNK        -0.4313 
     33 C         -73.6746   24.3795  -76.2910 C.2       8 UNK         0.5041 
     34 O         -72.6693   23.7700  -75.9211 O.2       8 UNK        -0.5577 
     35 CA        -74.0764   24.3520  -77.7743 C.3       7 UNK         0.0284 
     36 CB        -75.1269   23.2601  -78.0407 C.3       7 UNK        -0.1958 
     37 N         -74.5907   25.6584  -78.2000 N.am      7 UNK        -0.4454 
     38 C         -73.8204   26.6788  -78.6077 C.2       7 UNK         0.5089 
     39 O         -72.6040   26.5883  -78.7768 O.2       7 UNK        -0.5125 
     40 CA        -74.5108   28.0254  -78.9040 C.3       6 UNK         0.0408 
     41 CB        -74.7250   28.1903  -80.4175 C.3       6 UNK        -0.1791 
     42 N         -75.7987   28.1766  -78.2229 N.am      6 UNK        -0.4762 
     43 C         -75.9565   28.5744  -76.9508 C.2       6 UNK         0.5007 
     44 O         -75.0342   28.9621  -76.2354 O.2       6 UNK        -0.5032 
     45 CA        -77.3860   28.5064  -76.3667 C.3       5 UNK         0.0783 
     46 C46       -78.0410   29.9067  -76.3439 C.3       11 UNK        -0.0857 
     47 S47       -79.6179   29.9049  -75.4232 S.3       11 UNK        -0.2512 
     48 C48       -79.2091   30.8987  -73.9535 C.3       11 UNK         0.0225 
     49 N         -78.2353   27.5175  -77.0466 N.am      5 UNK        -0.4615 
     50 C         -78.0071   26.2007  -77.0456 C.2       4 UNK         0.5053 
     51 O         -77.0212   25.6858  -76.5164 O.2       4 UNK        -0.5105 
     52 CA        -78.9837   25.3237  -77.8292 C.3       4 UNK         0.0263 
     53 CB        -78.5177   25.1539  -79.2869 C.3       4 UNK        -0.1981 
     54 N         -79.0545   24.0272  -77.1675 N.am      4 UNK        -0.4224 
     55 C         -80.0782   23.1725  -77.2313 C.2       3 UNK         0.4895 
     56 O         -81.0671   23.3408  -77.9462 O.2       3 UNK        -0.5091 
     57 CA        -80.0101   21.9222  -76.3367 C.3       3 UNK         0.0250 
     58 CB        -79.1145   20.8314  -76.9584 C.3       3 UNK        -0.1996 
     59 N         -79.6508   22.2093  -74.9398 N.am      3 UNK        -0.4254 
     60 C         -78.4729   22.5992  -74.4333 C.2       2 UNK         0.5004 
     61 O         -77.4562   22.7737  -75.1061 O.2       2 UNK        -0.5226 
     62 CA        -78.4551   22.8960  -72.9234 C.3       2 UNK         0.0269 
     63 CB        -77.0460   22.7631  -72.3162 C.3       2 UNK        -0.1926 
     64 N         -78.9718   24.2406  -72.6582 N.am      2 UNK        -0.4687 
     65 C         -80.2672   24.5815  -72.6953 C.2       1 UNK         0.5165 
     66 O         -81.1764   23.7694  -72.8934 O.2       1 UNK        -0.5079 
     67 H67       -83.8066   27.1991  -74.5925 H         1 UNK         0.0900 
     68 H68       -83.2999   26.2849  -76.0155 H         1 UNK         0.0900 
     69 H69       -82.8236   27.9762  -75.8362 H         1 UNK         0.0900 
     70 H70       -82.6040   26.6678  -72.7763 H         1 UNK         0.2959 
     71 H71       -79.7479   26.6709  -72.7443 H         1 UNK         0.1079 
     72 H72       -81.4235   27.2905  -70.8338 H         1 UNK         0.0837 
     73 H73       -81.5819   25.5886  -70.5376 H         1 UNK         0.0837 
     74 H74       -80.1272   28.6655  -69.5008 H         1 UNK         0.0685 
     75 H75       -78.5906   28.3284  -68.7597 H         1 UNK         0.0685 
     76 H76       -80.2133   29.5154  -71.8269 H         1 UNK         0.1434 
     77 H77       -76.5041   30.5540  -73.7208 H         1 UNK         0.1329 
     78 H78       -76.4970   28.2784  -70.0897 H         1 UNK         0.1335 
     79 H79       -74.4377   28.7995  -71.0711 H         1 UNK         0.0680 
     80 H80       -74.4736   28.8265  -72.8096 H         1 UNK         0.0680 
     81 H81       -73.6272   32.2045  -73.9203 H         1 UNK         0.1032 
     82 H82       -74.0923   30.5789  -74.2471 H         1 UNK         0.1032 
     83 H83       -71.8173   30.8680  -74.8853 H         1 UNK         0.0461 
     84 H84       -72.2484   33.0917  -72.5353 H         1 UNK         0.3453 
     85 H85       -70.5694   33.5238  -72.3285 H         1 UNK         0.3453 
     86 H86       -71.8495   28.7314  -74.3625 H         1 UNK         0.2984 
     87 H87       -70.3804   27.0602  -73.3157 H         1 UNK         0.0554 
     88 H88       -70.2226   25.5986  -71.3290 H         1 UNK         0.0847 
     89 H89       -71.1300   26.7617  -70.3614 H         1 UNK         0.0847 
     90 H90       -69.5364   27.1742  -70.9777 H         1 UNK         0.0847 
     91 H91       -72.7173   25.9479  -72.0412 H         1 UNK         0.3141 
     92 H92       -73.9580   24.5686  -73.5424 H         1 UNK         0.0743 
     93 H93       -75.5604   27.1500  -74.0030 H         1 UNK         0.0784 
     94 H94       -76.2879   25.5937  -73.6540 H         1 UNK         0.0784 
     95 H95       -75.2733   26.3729  -72.4492 H         1 UNK         0.0784 
     96 H96       -75.3077   25.4962  -75.8727 H         1 UNK         0.3213 
     97 H97       -73.1858   24.1092  -78.3582 H         1 UNK         0.0855 
     98 H98       -76.0387   23.4182  -77.4647 H         1 UNK         0.0814 
     99 H99       -74.7409   22.2779  -77.7652 H         1 UNK         0.0814 
    100 H100      -75.3975   23.2175  -79.0956 H         1 UNK         0.0814 
    101 H101      -75.5693   25.8350  -78.0151 H         1 UNK         0.3105 
    102 H102      -73.8396   28.8195  -78.5695 H         1 UNK         0.0547 
    103 H103      -73.7788   28.1153  -80.9553 H         1 UNK         0.0837 
    104 H104      -75.3887   27.4237  -80.8194 H         1 UNK         0.0837 
    105 H105      -75.1528   29.1646  -80.6544 H         1 UNK         0.0837 
    106 H106      -76.6228   27.9061  -78.7398 H         1 UNK         0.3020 
    107 H107      -77.2768   28.1736  -75.3320 H         1 UNK         0.1245 
    108 H108      -78.2390   30.2517  -77.3604 H         1 UNK         0.0781 
    109 H109      -77.3678   30.6455  -75.9064 H         1 UNK         0.0781 
    110 H110      -80.1400   31.2724  -73.5242 H         1 UNK         0.0836 
    111 H111      -78.6455   31.7854  -74.2478 H         1 UNK         0.0836 
    112 H112      -79.0812   27.8717  -77.4692 H         1 UNK         0.3022 
    113 H113      -79.9703   25.7915  -77.8100 H         1 UNK         0.0747 
    114 H114      -79.2162   24.5412  -79.8569 H         1 UNK         0.0793 
    115 H115      -78.4488   26.1175  -79.7927 H         1 UNK         0.0793 
    116 H116      -77.5371   24.6805  -79.3448 H         1 UNK         0.0793 
    117 H117      -78.2910   23.8268  -76.5228 H         1 UNK         0.3047 
    118 H118      -81.0231   21.5186  -76.2936 H         1 UNK         0.0822 
    119 H119      -79.1060   19.9289  -76.3473 H         1 UNK         0.0807 
    120 H120      -78.0833   21.1643  -77.0802 H         1 UNK         0.0807 
    121 H121      -79.4789   20.5504  -77.9473 H         1 UNK         0.0807 
    122 H122      -80.4350   22.2175  -74.2974 H         1 UNK         0.2946 
    123 H123      -79.0967   22.1645  -72.4262 H         1 UNK         0.1144 
    124 H124      -77.0565   22.9515  -71.2426 H         1 UNK         0.0793 
    125 H125      -76.3342   23.4510  -72.7709 H         1 UNK         0.0793 
    126 H126      -76.6563   21.7551  -72.4642 H         1 UNK         0.0793 
    127 H127      -78.2851   24.9590  -72.4805 H         1 UNK         0.2896 
@<TRIPOS>BOND
     1    1    2 1    
     2    1   67 1    
     3    1   68 1    
     4    1   69 1    
     5    2    3 2    
     6    2    4 am   BACKBONE|DICT|INTERRES
     7    4    5 1    
     8    4   70 1    
     9    5    6 1    
    10    5   65 1    
    11    5   71 1    
    12    6    7 1    
    13    6   72 1    
    14    6   73 1    
    15    7    8 1    
    16    8    9 1    
    17    8   74 1    
    18    8   75 1    
    19    9   10 ar   
    20    9   14 ar   
    21   10   11 ar   
    22   10   76 1    
    23   11   12 ar   
    24   11   48 1    
    25   12   13 ar   
    26   12   77 1    
    27   13   14 ar   
    28   13   15 1    
    29   14   78 1    
    30   15   16 1    
    31   15   79 1    
    32   15   80 1    
    33   16   17 1    
    34   17   18 1    
    35   17   81 1    
    36   17   82 1    
    37   18   19 1    
    38   18   22 1    
    39   18   83 1    
    40   19   20 am   BACKBONE|DICT|INTERRES
    41   19   21 2    
    42   20   84 1    
    43   20   85 1    
    44   22   23 am   BACKBONE|DICT|INTERRES
    45   22   86 1    
    46   23   24 2    
    47   23   25 1    
    48   25   26 1    
    49   25   27 1    
    50   25   87 1    
    51   26   88 1    
    52   26   89 1    
    53   26   90 1    
    54   27   28 am   BACKBONE|DICT|INTERRES
    55   27   91 1    
    56   28   29 2    
    57   28   30 1    
    58   30   31 1    
    59   30   32 1    
    60   30   92 1    
    61   31   93 1    
    62   31   94 1    
    63   31   95 1    
    64   32   33 am   BACKBONE|DICT|INTERRES
    65   32   96 1    
    66   33   34 2    
    67   33   35 1    
    68   35   36 1    
    69   35   37 1    
    70   35   97 1    
    71   36   98 1    
    72   36   99 1    
    73   36  100 1    
    74   37   38 am   BACKBONE|DICT|INTERRES
    75   37  101 1    
    76   38   39 2    
    77   38   40 1    
    78   40   41 1    
    79   40   42 1    
    80   40  102 1    
    81   41  103 1    
    82   41  104 1    
    83   41  105 1    
    84   42   43 am   BACKBONE|DICT|INTERRES
    85   42  106 1    
    86   43   44 2    
    87   43   45 1    
    88   45   46 1    
    89   45   49 1    
    90   45  107 1    
    91   46   47 1    
    92   46  108 1    
    93   46  109 1    
    94   47   48 1    
    95   48  110 1    
    96   48  111 1    
    97   49   50 am   BACKBONE|DICT|INTERRES
    98   49  112 1    
    99   50   51 2    
   100   50   52 1    
   101   52   53 1    
   102   52   54 1    
   103   52  113 1    
   104   53  114 1    
   105   53  115 1    
   106   53  116 1    
   107   54   55 am   BACKBONE|DICT|INTERRES
   108   54  117 1    
   109   55   56 2    
   110   55   57 1    
   111   57   58 1    
   112   57   59 1    
   113   57  118 1    
   114   58  119 1    
   115   58  120 1    
   116   58  121 1    
   117   59   60 am   BACKBONE|DICT|INTERRES
   118   59  122 1    
   119   60   61 2    
   120   60   62 1    
   121   62   63 1    
   122   62   64 1    
   123   62  123 1    
   124   63  124 1    
   125   63  125 1    
   126   63  126 1    
   127   64   65 am   BACKBONE|DICT|INTERRES
   128   64  127 1    
   129   65   66 2    
@<TRIPOS>SUBSTRUCTURE
     1 UNK         1 GROUP             0       ****    0 ROOT    
