@<TRIPOS>MOLECULE
3R135
127   129    1
SMALL
USER_CHARGES


@<TRIPOS>ATOM
      1 CA        -84.0134   24.9854  -75.1367 C.3       0 UNK        -0.1998 
      2 C         -83.0171   26.0235  -74.6443 C.2       0 UNK         0.4909 
      3 O         -82.6247   26.9042  -75.4102 O.2       0 UNK        -0.5240 
      4 N         -82.5944   25.9165  -73.3762 N.am      1 UNK        -0.4739 
      5 CA        -81.6150   26.7881  -72.7119 C.3       1 UNK         0.0864 
      6 C6        -81.4432   26.3933  -71.2155 C.3       11 UNK        -0.0881 
      7 S7        -81.3294   27.7623  -70.0048 S.3       11 UNK        -0.2682 
      8 C8        -80.3070   29.0674  -70.7805 C.3       11 UNK         0.0289 
      9 C9        -78.8428   28.7231  -71.0648 C.ar      11 UNK        -0.0687 
     10 C10       -78.2256   27.5479  -70.6154 C.ar      11 UNK        -0.0823 
     11 C11       -76.8951   27.2694  -70.9414 C.ar      11 UNK        -0.0830 
     12 C12       -76.1622   28.1917  -71.6918 C.ar      11 UNK        -0.1021 
     13 C13       -76.7556   29.3783  -72.1338 C.ar      11 UNK        -0.0753 
     14 C14       -78.0923   29.6335  -71.8155 C.ar      11 UNK        -0.0933 
     15 C15       -75.9567   30.4017  -72.9310 C.3       11 UNK         0.0166 
     16 S16       -75.1063   29.6617  -74.3602 S.3       11 UNK        -0.2615 
     17 C17       -74.5232   31.1416  -75.2611 C.3       11 UNK        -0.0865 
     18 CA        -73.1683   31.7207  -74.7650 C.3       10 UNK         0.0862 
     19 C         -73.3480   32.6750  -73.5461 C.2       10 UNK         0.5551 
     20 N         -72.7581   32.3997  -72.3891 N.am      10 UNK        -0.7319 
     21 O         -74.0315   33.6893  -73.6586 O.2       10 UNK        -0.5018 
     22 N         -72.1508   30.6691  -74.5998 N.am      10 UNK        -0.4509 
     23 C         -70.8272   30.8770  -74.5685 C.2       10 UNK         0.4899 
     24 O         -70.2941   31.9718  -74.7448 O.2       10 UNK        -0.4839 
     25 CA        -69.9545   29.6446  -74.3171 C.3       9 UNK         0.0222 
     26 CB        -70.0455   29.2063  -72.8407 C.3       9 UNK        -0.1966 
     27 N         -70.3581   28.5722  -75.2250 N.am      9 UNK        -0.4218 
     28 C         -69.7078   27.4241  -75.4426 C.2       9 UNK         0.5020 
     29 O         -68.6513   27.1260  -74.8829 O.2       9 UNK        -0.5274 
     30 CA        -70.3019   26.4530  -76.4857 C.3       8 UNK         0.0270 
     31 CB        -70.3197   24.9968  -75.9697 C.3       8 UNK        -0.1976 
     32 N         -71.6206   26.8294  -77.0244 N.am      8 UNK        -0.4313 
     33 C         -72.7935   26.8963  -76.3734 C.2       8 UNK         0.5041 
     34 O         -72.9185   26.7323  -75.1592 O.2       8 UNK        -0.5577 
     35 CA        -74.0457   27.2197  -77.2127 C.3       7 UNK         0.0284 
     36 CB        -73.7478   27.8142  -78.6088 C.3       7 UNK        -0.1958 
     37 N         -74.9282   26.0557  -77.3158 N.am      7 UNK        -0.4454 
     38 C         -74.6309   24.8478  -77.8169 C.2       7 UNK         0.5089 
     39 O         -73.5598   24.5626  -78.3565 O.2       7 UNK        -0.5125 
     40 CA        -75.7368   23.7854  -77.6830 C.3       6 UNK         0.0408 
     41 CB        -75.2901   22.3774  -78.1293 C.3       6 UNK        -0.1791 
     42 N         -76.3127   23.7515  -76.3345 N.am      6 UNK        -0.4762 
     43 C         -75.7015   23.4532  -75.1760 C.2       6 UNK         0.5007 
     44 O         -74.5152   23.1355  -75.0872 O.2       6 UNK        -0.5032 
     45 CA        -76.5655   23.4856  -73.8938 C.3       5 UNK         0.0783 
     46 C46       -76.1945   24.6897  -72.9928 C.3       11 UNK        -0.0857 
     47 S47       -76.9377   24.5237  -71.3349 S.3       11 UNK        -0.2512 
     48 C48       -76.2516   25.9729  -70.4720 C.3       11 UNK         0.0225 
     49 N         -78.0033   23.4570  -74.1896 N.am      5 UNK        -0.4615 
     50 C         -78.6751   22.3893  -74.6406 C.2       4 UNK         0.5053 
     51 O         -78.1807   21.2691  -74.7663 O.2       4 UNK        -0.5105 
     52 CA        -80.1292   22.6295  -75.0727 C.3       4 UNK         0.0263 
     53 CB        -81.0760   22.6154  -73.8613 C.3       4 UNK        -0.1981 
     54 N         -80.2603   23.8945  -75.8023 N.am      4 UNK        -0.4224 
     55 C         -79.9346   24.0582  -77.0939 C.2       3 UNK         0.4895 
     56 O         -79.5525   23.1418  -77.8209 O.2       3 UNK        -0.5091 
     57 CA        -80.0320   25.4769  -77.6823 C.3       3 UNK         0.0250 
     58 CB        -81.3663   25.6642  -78.4219 C.3       3 UNK        -0.1996 
     59 N         -79.8814   26.5254  -76.6711 N.am      3 UNK        -0.4254 
     60 C         -78.7027   26.9099  -76.1575 C.2       2 UNK         0.5004 
     61 O         -77.6186   26.4575  -76.5231 O.2       2 UNK        -0.5226 
     62 CA        -78.7350   27.9408  -75.0155 C.3       2 UNK         0.0269 
     63 CB        -78.6189   29.3654  -75.5794 C.3       2 UNK        -0.1926 
     64 N         -79.9304   27.8439  -74.1704 N.am      2 UNK        -0.4687 
     65 C         -80.2735   26.7512  -73.4737 C.2       1 UNK         0.5165 
     66 O         -79.6161   25.7090  -73.4820 O.2       1 UNK        -0.5079 
     67 H67       -84.8820   25.4772  -75.5738 H         1 UNK         0.0900 
     68 H68       -83.5553   24.3587  -75.9014 H         1 UNK         0.0900 
     69 H69       -84.3611   24.3393  -74.3308 H         1 UNK         0.0900 
     70 H70       -82.9509   25.1604  -72.8096 H         1 UNK         0.2959 
     71 H71       -82.0297   27.7957  -72.7682 H         1 UNK         0.1079 
     72 H72       -80.5980   25.7184  -71.0641 H         1 UNK         0.0837 
     73 H73       -82.3063   25.8114  -70.8881 H         1 UNK         0.0837 
     74 H74       -80.3176   29.9266  -70.1085 H         1 UNK         0.0685 
     75 H75       -80.7891   29.4062  -71.6972 H         1 UNK         0.0685 
     76 H76       -78.7724   26.8286  -70.0240 H         1 UNK         0.1434 
     77 H77       -75.1292   27.9866  -71.9380 H         1 UNK         0.1329 
     78 H78       -78.5561   30.5490  -72.1567 H         1 UNK         0.1335 
     79 H79       -76.6044   31.2062  -73.2824 H         1 UNK         0.0680 
     80 H80       -75.2221   30.8562  -72.2667 H         1 UNK         0.0680 
     81 H81       -75.3067   31.9020  -75.2691 H         1 UNK         0.1032 
     82 H82       -74.4116   30.8463  -76.3053 H         1 UNK         0.1032 
     83 H83       -72.8073   32.3709  -75.5646 H         1 UNK         0.0461 
     84 H84       -72.8777   33.0299  -71.6120 H         1 UNK         0.3453 
     85 H85       -72.1948   31.5722  -72.2873 H         1 UNK         0.3453 
     86 H86       -72.5167   29.7515  -74.3863 H         1 UNK         0.2984 
     87 H87       -68.9207   29.9136  -74.5425 H         1 UNK         0.0554 
     88 H88       -69.8217   30.0378  -72.1709 H         1 UNK         0.0847 
     89 H89       -69.3313   28.4154  -72.6129 H         1 UNK         0.0847 
     90 H90       -71.0396   28.8372  -72.5867 H         1 UNK         0.0847 
     91 H91       -71.1923   28.7432  -75.7672 H         1 UNK         0.3141 
     92 H92       -69.6179   26.4862  -77.3361 H         1 UNK         0.0743 
     93 H93       -69.3156   24.6566  -75.7100 H         1 UNK         0.0784 
     94 H94       -70.7061   24.3137  -76.7265 H         1 UNK         0.0784 
     95 H95       -70.9391   24.8913  -75.0772 H         1 UNK         0.0784 
     96 H96       -71.6459   26.9823  -78.0241 H         1 UNK         0.3213 
     97 H97       -74.6047   27.9705  -76.6543 H         1 UNK         0.0855 
     98 H98       -73.2431   27.1067  -79.2677 H         1 UNK         0.0814 
     99 H99       -73.1241   28.7062  -78.5335 H         1 UNK         0.0814 
    100 H100      -74.6713   28.1162  -79.1040 H         1 UNK         0.0814 
    101 H101      -75.8560   26.1734  -76.9086 H         1 UNK         0.3105 
    102 H102      -76.5434   24.0991  -78.3475 H         1 UNK         0.0547 
    103 H103      -76.1027   21.6568  -78.0374 H         1 UNK         0.0837 
    104 H104      -74.4480   22.0119  -77.5410 H         1 UNK         0.0837 
    105 H105      -74.9773   22.3816  -79.1741 H         1 UNK         0.0837 
    106 H106      -77.2772   24.0471  -76.2740 H         1 UNK         0.3020 
    107 H107      -76.3209   22.5703  -73.3494 H         1 UNK         0.1245 
    108 H108      -76.5241   25.6279  -73.4441 H         1 UNK         0.0781 
    109 H109      -75.1121   24.7664  -72.8705 H         1 UNK         0.0781 
    110 H110      -75.1691   25.9987  -70.6060 H         1 UNK         0.0836 
    111 H111      -76.4230   25.8579  -69.4008 H         1 UNK         0.0836 
    112 H112      -78.5129   24.3221  -74.0205 H         1 UNK         0.3022 
    113 H113      -80.4216   21.8110  -75.7345 H         1 UNK         0.0747 
    114 H114      -82.1136   22.7440  -74.1679 H         1 UNK         0.0793 
    115 H115      -81.0122   21.6632  -73.3330 H         1 UNK         0.0793 
    116 H116      -80.8358   23.3987  -73.1423 H         1 UNK         0.0793 
    117 H117      -80.4815   24.7123  -75.2503 H         1 UNK         0.3047 
    118 H118      -79.2266   25.5833  -78.4128 H         1 UNK         0.0822 
    119 H119      -81.4263   26.6478  -78.8881 H         1 UNK         0.0807 
    120 H120      -82.2210   25.5579  -77.7540 H         1 UNK         0.0807 
    121 H121      -81.4795   24.9234  -79.2146 H         1 UNK         0.0807 
    122 H122      -80.7353   26.9259  -76.2945 H         1 UNK         0.2946 
    123 H123      -77.8659   27.7478  -74.3817 H         1 UNK         0.1144 
    124 H124      -78.5480   30.1044  -74.7819 H         1 UNK         0.0793 
    125 H125      -79.4735   29.6246  -76.2054 H         1 UNK         0.0793 
    126 H126      -77.7214   29.4684  -76.1915 H         1 UNK         0.0793 
    127 H127      -80.5489   28.6418  -74.1703 H         1 UNK         0.2896 
@<TRIPOS>BOND
     1    1    2 1    
     2    1   67 1    
     3    1   68 1    
     4    1   69 1    
     5    2    3 2    
     6    2    4 am   BACKBONE|DICT|INTERRES
     7    4    5 1    
     8    4   70 1    
     9    5    6 1    
    10    5   65 1    
    11    5   71 1    
    12    6    7 1    
    13    6   72 1    
    14    6   73 1    
    15    7    8 1    
    16    8    9 1    
    17    8   74 1    
    18    8   75 1    
    19    9   10 ar   
    20    9   14 ar   
    21   10   11 ar   
    22   10   76 1    
    23   11   12 ar   
    24   11   48 1    
    25   12   13 ar   
    26   12   77 1    
    27   13   14 ar   
    28   13   15 1    
    29   14   78 1    
    30   15   16 1    
    31   15   79 1    
    32   15   80 1    
    33   16   17 1    
    34   17   18 1    
    35   17   81 1    
    36   17   82 1    
    37   18   19 1    
    38   18   22 1    
    39   18   83 1    
    40   19   20 am   BACKBONE|DICT|INTERRES
    41   19   21 2    
    42   20   84 1    
    43   20   85 1    
    44   22   23 am   BACKBONE|DICT|INTERRES
    45   22   86 1    
    46   23   24 2    
    47   23   25 1    
    48   25   26 1    
    49   25   27 1    
    50   25   87 1    
    51   26   88 1    
    52   26   89 1    
    53   26   90 1    
    54   27   28 am   BACKBONE|DICT|INTERRES
    55   27   91 1    
    56   28   29 2    
    57   28   30 1    
    58   30   31 1    
    59   30   32 1    
    60   30   92 1    
    61   31   93 1    
    62   31   94 1    
    63   31   95 1    
    64   32   33 am   BACKBONE|DICT|INTERRES
    65   32   96 1    
    66   33   34 2    
    67   33   35 1    
    68   35   36 1    
    69   35   37 1    
    70   35   97 1    
    71   36   98 1    
    72   36   99 1    
    73   36  100 1    
    74   37   38 am   BACKBONE|DICT|INTERRES
    75   37  101 1    
    76   38   39 2    
    77   38   40 1    
    78   40   41 1    
    79   40   42 1    
    80   40  102 1    
    81   41  103 1    
    82   41  104 1    
    83   41  105 1    
    84   42   43 am   BACKBONE|DICT|INTERRES
    85   42  106 1    
    86   43   44 2    
    87   43   45 1    
    88   45   46 1    
    89   45   49 1    
    90   45  107 1    
    91   46   47 1    
    92   46  108 1    
    93   46  109 1    
    94   47   48 1    
    95   48  110 1    
    96   48  111 1    
    97   49   50 am   BACKBONE|DICT|INTERRES
    98   49  112 1    
    99   50   51 2    
   100   50   52 1    
   101   52   53 1    
   102   52   54 1    
   103   52  113 1    
   104   53  114 1    
   105   53  115 1    
   106   53  116 1    
   107   54   55 am   BACKBONE|DICT|INTERRES
   108   54  117 1    
   109   55   56 2    
   110   55   57 1    
   111   57   58 1    
   112   57   59 1    
   113   57  118 1    
   114   58  119 1    
   115   58  120 1    
   116   58  121 1    
   117   59   60 am   BACKBONE|DICT|INTERRES
   118   59  122 1    
   119   60   61 2    
   120   60   62 1    
   121   62   63 1    
   122   62   64 1    
   123   62  123 1    
   124   63  124 1    
   125   63  125 1    
   126   63  126 1    
   127   64   65 am   BACKBONE|DICT|INTERRES
   128   64  127 1    
   129   65   66 2    
@<TRIPOS>SUBSTRUCTURE
     1 UNK         1 GROUP             0       ****    0 ROOT    
