@<TRIPOS>MOLECULE
3R135
127   129    1
SMALL
USER_CHARGES


@<TRIPOS>ATOM
      1 CA        -85.6667   29.5103  -76.4380 C.3       0 UNK        -0.1998 
      2 C         -84.1875   29.1713  -76.3303 C.2       0 UNK         0.4909 
      3 O         -83.4089   29.5478  -77.2066 O.2       0 UNK        -0.5240 
      4 N         -83.7950   28.4683  -75.2591 N.am      1 UNK        -0.4739 
      5 CA        -82.4207   28.0178  -75.0073 C.3       1 UNK         0.0864 
      6 C6        -82.2573   27.5626  -73.5335 C.3       11 UNK        -0.0881 
      7 S7        -80.5337   27.2201  -73.0454 S.3       11 UNK        -0.2682 
      8 C8        -80.0517   28.7841  -72.2470 C.3       11 UNK         0.0289 
      9 C9        -78.5977   28.7429  -71.7962 C.ar      11 UNK        -0.0687 
     10 C10       -78.2105   27.8571  -70.7869 C.ar      11 UNK        -0.0823 
     11 C11       -76.8746   27.7783  -70.3887 C.ar      11 UNK        -0.0830 
     12 C12       -75.9324   28.6222  -70.9764 C.ar      11 UNK        -0.1021 
     13 C13       -76.2942   29.5074  -71.9963 C.ar      11 UNK        -0.0753 
     14 C14       -77.6355   29.5642  -72.3970 C.ar      11 UNK        -0.0933 
     15 C15       -75.2437   30.3390  -72.7336 C.3       11 UNK         0.0166 
     16 S16       -74.0163   31.1492  -71.6540 S.3       11 UNK        -0.2615 
     17 C17       -72.6932   29.8907  -71.5176 C.3       11 UNK        -0.0865 
     18 CA        -71.5089   30.1628  -72.4815 C.3       10 UNK         0.0862 
     19 C         -70.2077   29.4382  -72.0186 C.2       10 UNK         0.5551 
     20 N         -69.5381   28.6442  -72.8465 N.am      10 UNK        -0.7319 
     21 O         -69.7852   29.6124  -70.8782 O.2       10 UNK        -0.5018 
     22 N         -71.8943   29.8681  -73.8693 N.am      10 UNK        -0.4509 
     23 C         -71.3703   30.4471  -74.9545 C.2       10 UNK         0.4899 
     24 O         -70.5603   31.3749  -74.9153 O.2       10 UNK        -0.4839 
     25 CA        -71.8267   29.8691  -76.3085 C.3       9 UNK         0.0222 
     26 CB        -70.9355   30.3191  -77.4855 C.3       9 UNK        -0.1966 
     27 N         -71.9678   28.4053  -76.2960 N.am      9 UNK        -0.4218 
     28 C         -71.0121   27.4986  -76.0270 C.2       9 UNK         0.5020 
     29 O         -69.8652   27.8052  -75.6986 O.2       9 UNK        -0.5274 
     30 CA        -71.3738   25.9990  -76.0985 C.3       8 UNK         0.0270 
     31 CB        -71.2495   25.3503  -74.7088 C.3       8 UNK        -0.1976 
     32 N         -72.7096   25.7193  -76.6285 N.am      8 UNK        -0.4313 
     33 C         -73.1026   25.8952  -77.8973 C.2       8 UNK         0.5041 
     34 O         -72.3450   26.2218  -78.8111 O.2       8 UNK        -0.5577 
     35 CA        -74.6083   25.7335  -78.1822 C.3       7 UNK         0.0284 
     36 CB        -74.9192   24.3002  -78.6387 C.3       7 UNK        -0.1958 
     37 N         -75.4619   26.0940  -77.0402 N.am      7 UNK        -0.4454 
     38 C         -75.5004   27.3119  -76.4765 C.2       7 UNK         0.5089 
     39 O         -74.8242   28.2656  -76.8612 O.2       7 UNK        -0.5125 
     40 CA        -76.4142   27.4917  -75.2592 C.3       6 UNK         0.0408 
     41 CB        -77.8541   27.7489  -75.7125 C.3       6 UNK        -0.1791 
     42 N         -76.3596   26.3438  -74.3521 N.am      6 UNK        -0.4762 
     43 C         -75.3380   26.0964  -73.5152 C.2       6 UNK         0.5007 
     44 O         -74.3661   26.8437  -73.3895 O.2       6 UNK        -0.5032 
     45 CA        -75.3662   24.7480  -72.7556 C.3       5 UNK         0.0783 
     46 C46       -76.1639   24.8131  -71.4269 C.3       11 UNK        -0.0857 
     47 S47       -75.2219   25.5686  -70.0582 S.3       11 UNK        -0.2512 
     48 C48       -76.4312   26.7468  -69.3619 C.3       11 UNK         0.0225 
     49 N         -75.8653   23.6565  -73.5962 N.am      5 UNK        -0.4615 
     50 C         -75.3015   23.2266  -74.7325 C.2       4 UNK         0.5053 
     51 O         -74.2459   23.6694  -75.1824 O.2       4 UNK        -0.5105 
     52 CA        -76.0685   22.1481  -75.5197 C.3       4 UNK         0.0263 
     53 CB        -75.5353   20.7505  -75.1686 C.3       4 UNK        -0.1981 
     54 N         -77.5214   22.1840  -75.3126 N.am      4 UNK        -0.4224 
     55 C         -78.3202   23.2122  -75.6323 C.2       3 UNK         0.4895 
     56 O         -77.9205   24.2630  -76.1420 O.2       3 UNK        -0.5091 
     57 CA        -79.7953   23.0523  -75.2505 C.3       3 UNK         0.0250 
     58 CB        -79.9989   23.3462  -73.7524 C.3       3 UNK        -0.1996 
     59 N         -80.6242   23.9593  -76.0413 N.am      3 UNK        -0.4254 
     60 C         -81.8933   23.7247  -76.3960 C.2       2 UNK         0.5004 
     61 O         -82.5081   22.7012  -76.0881 O.2       2 UNK        -0.5226 
     62 CA        -82.6077   24.8367  -77.1882 C.3       2 UNK         0.0269 
     63 CB        -83.9330   24.3629  -77.8147 C.3       2 UNK        -0.1926 
     64 N         -82.8809   25.9857  -76.3226 N.am      2 UNK        -0.4687 
     65 C         -81.9821   26.9301  -76.0137 C.2       1 UNK         0.5165 
     66 O         -80.8548   26.9673  -76.5057 O.2       1 UNK        -0.5079 
     67 H67       -86.0835   29.0834  -77.3498 H         1 UNK         0.0900 
     68 H68       -86.2367   29.1259  -75.5923 H         1 UNK         0.0900 
     69 H69       -85.8022   30.5909  -76.4746 H         1 UNK         0.0900 
     70 H70       -84.4823   28.1978  -74.5696 H         1 UNK         0.2959 
     71 H71       -81.7636   28.8763  -75.1659 H         1 UNK         0.1079 
     72 H72       -82.6596   28.3234  -72.8625 H         1 UNK         0.0837 
     73 H73       -82.8458   26.6627  -73.3447 H         1 UNK         0.0837 
     74 H74       -80.2180   29.6083  -72.9424 H         1 UNK         0.0685 
     75 H75       -80.6931   28.9659  -71.3835 H         1 UNK         0.0685 
     76 H76       -78.9483   27.2050  -70.3395 H         1 UNK         0.1434 
     77 H77       -74.9065   28.5413  -70.6575 H         1 UNK         0.1329 
     78 H78       -77.9280   30.2313  -73.1961 H         1 UNK         0.1335 
     79 H79       -74.7246   29.7054  -73.4520 H         1 UNK         0.0680 
     80 H80       -75.7334   31.1203  -73.3166 H         1 UNK         0.0680 
     81 H81       -72.3641   29.9028  -70.4768 H         1 UNK         0.1032 
     82 H82       -73.0817   28.8879  -71.6971 H         1 UNK         0.1032 
     83 H83       -71.2732   31.2267  -72.4157 H         1 UNK         0.0461 
     84 H84       -69.8296   28.5095  -73.8079 H         1 UNK         0.3453 
     85 H85       -68.6978   28.1971  -72.5170 H         1 UNK         0.3453 
     86 H86       -72.5304   29.0944  -73.9976 H         1 UNK         0.2984 
     87 H87       -72.8270   30.2672  -76.4840 H         1 UNK         0.0554 
     88 H88       -70.9308   31.4056  -77.5806 H         1 UNK         0.0847 
     89 H89       -71.2945   29.9139  -78.4315 H         1 UNK         0.0847 
     90 H90       -69.9009   29.9999  -77.3550 H         1 UNK         0.0847 
     91 H91       -72.8982   28.0711  -76.5319 H         1 UNK         0.3141 
     92 H92       -70.6462   25.5270  -76.7617 H         1 UNK         0.0743 
     93 H93       -70.2454   25.4789  -74.3023 H         1 UNK         0.0784 
     94 H94       -71.9475   25.7894  -73.9954 H         1 UNK         0.0784 
     95 H95       -71.4449   24.2785  -74.7516 H         1 UNK         0.0784 
     96 H96       -73.3891   25.3472  -75.9718 H         1 UNK         0.3213 
     97 H97       -74.8630   26.4132  -78.9983 H         1 UNK         0.0855 
     98 H98       -74.5452   23.5637  -77.9285 H         1 UNK         0.0814 
     99 H99       -74.4404   24.0904  -79.5960 H         1 UNK         0.0814 
    100 H100      -75.9898   24.1393  -78.7681 H         1 UNK         0.0814 
    101 H101      -76.0790   25.3776  -76.6752 H         1 UNK         0.3105 
    102 H102      -76.0783   28.3768  -74.7205 H         1 UNK         0.0547 
    103 H103      -78.4975   27.9838  -74.8681 H         1 UNK         0.0837 
    104 H104      -77.9056   28.5956  -76.3981 H         1 UNK         0.0837 
    105 H105      -78.2733   26.8867  -76.2296 H         1 UNK         0.0837 
    106 H106      -77.0930   25.6548  -74.4508 H         1 UNK         0.3020 
    107 H107      -74.3279   24.5013  -72.5207 H         1 UNK         0.1245 
    108 H108      -76.4122   23.8046  -71.0921 H         1 UNK         0.0781 
    109 H109      -77.1229   25.3131  -71.5709 H         1 UNK         0.0781 
    110 H110      -75.9799   27.2596  -68.5114 H         1 UNK         0.0836 
    111 H111      -77.2845   26.1909  -68.9703 H         1 UNK         0.0836 
    112 H112      -76.7275   23.2228  -73.3037 H         1 UNK         0.3022 
    113 H113      -75.8892   22.3218  -76.5809 H         1 UNK         0.0747 
    114 H114      -76.0031   19.9805  -75.7825 H         1 UNK         0.0793 
    115 H115      -74.4597   20.6893  -75.3411 H         1 UNK         0.0793 
    116 H116      -75.7119   20.5004  -74.1216 H         1 UNK         0.0793 
    117 H117      -77.9340   21.3637  -74.8909 H         1 UNK         0.3047 
    118 H118      -80.0866   22.0209  -75.4619 H         1 UNK         0.0822 
    119 H119      -79.4307   22.6540  -73.1302 H         1 UNK         0.0807 
    120 H120      -81.0464   23.2474  -73.4667 H         1 UNK         0.0807 
    121 H121      -79.6789   24.3565  -73.4951 H         1 UNK         0.0807 
    122 H122      -80.1755   24.8241  -76.3263 H         1 UNK         0.2946 
    123 H123      -81.9454   25.1401  -78.0028 H         1 UNK         0.1144 
    124 H124      -84.3880   25.1484  -78.4184 H         1 UNK         0.0793 
    125 H125      -84.6571   24.0615  -77.0566 H         1 UNK         0.0793 
    126 H126      -83.7699   23.5059  -78.4696 H         1 UNK         0.0793 
    127 H127      -83.7858   26.0152  -75.8758 H         1 UNK         0.2896 
@<TRIPOS>BOND
     1    1    2 1    
     2    1   67 1    
     3    1   68 1    
     4    1   69 1    
     5    2    3 2    
     6    2    4 am   BACKBONE|DICT|INTERRES
     7    4    5 1    
     8    4   70 1    
     9    5    6 1    
    10    5   65 1    
    11    5   71 1    
    12    6    7 1    
    13    6   72 1    
    14    6   73 1    
    15    7    8 1    
    16    8    9 1    
    17    8   74 1    
    18    8   75 1    
    19    9   10 ar   
    20    9   14 ar   
    21   10   11 ar   
    22   10   76 1    
    23   11   12 ar   
    24   11   48 1    
    25   12   13 ar   
    26   12   77 1    
    27   13   14 ar   
    28   13   15 1    
    29   14   78 1    
    30   15   16 1    
    31   15   79 1    
    32   15   80 1    
    33   16   17 1    
    34   17   18 1    
    35   17   81 1    
    36   17   82 1    
    37   18   19 1    
    38   18   22 1    
    39   18   83 1    
    40   19   20 am   BACKBONE|DICT|INTERRES
    41   19   21 2    
    42   20   84 1    
    43   20   85 1    
    44   22   23 am   BACKBONE|DICT|INTERRES
    45   22   86 1    
    46   23   24 2    
    47   23   25 1    
    48   25   26 1    
    49   25   27 1    
    50   25   87 1    
    51   26   88 1    
    52   26   89 1    
    53   26   90 1    
    54   27   28 am   BACKBONE|DICT|INTERRES
    55   27   91 1    
    56   28   29 2    
    57   28   30 1    
    58   30   31 1    
    59   30   32 1    
    60   30   92 1    
    61   31   93 1    
    62   31   94 1    
    63   31   95 1    
    64   32   33 am   BACKBONE|DICT|INTERRES
    65   32   96 1    
    66   33   34 2    
    67   33   35 1    
    68   35   36 1    
    69   35   37 1    
    70   35   97 1    
    71   36   98 1    
    72   36   99 1    
    73   36  100 1    
    74   37   38 am   BACKBONE|DICT|INTERRES
    75   37  101 1    
    76   38   39 2    
    77   38   40 1    
    78   40   41 1    
    79   40   42 1    
    80   40  102 1    
    81   41  103 1    
    82   41  104 1    
    83   41  105 1    
    84   42   43 am   BACKBONE|DICT|INTERRES
    85   42  106 1    
    86   43   44 2    
    87   43   45 1    
    88   45   46 1    
    89   45   49 1    
    90   45  107 1    
    91   46   47 1    
    92   46  108 1    
    93   46  109 1    
    94   47   48 1    
    95   48  110 1    
    96   48  111 1    
    97   49   50 am   BACKBONE|DICT|INTERRES
    98   49  112 1    
    99   50   51 2    
   100   50   52 1    
   101   52   53 1    
   102   52   54 1    
   103   52  113 1    
   104   53  114 1    
   105   53  115 1    
   106   53  116 1    
   107   54   55 am   BACKBONE|DICT|INTERRES
   108   54  117 1    
   109   55   56 2    
   110   55   57 1    
   111   57   58 1    
   112   57   59 1    
   113   57  118 1    
   114   58  119 1    
   115   58  120 1    
   116   58  121 1    
   117   59   60 am   BACKBONE|DICT|INTERRES
   118   59  122 1    
   119   60   61 2    
   120   60   62 1    
   121   62   63 1    
   122   62   64 1    
   123   62  123 1    
   124   63  124 1    
   125   63  125 1    
   126   63  126 1    
   127   64   65 am   BACKBONE|DICT|INTERRES
   128   64  127 1    
   129   65   66 2    
@<TRIPOS>SUBSTRUCTURE
     1 UNK         1 GROUP             0       ****    0 ROOT    
