@<TRIPOS>MOLECULE
3R135
127   129    1
SMALL
USER_CHARGES


@<TRIPOS>ATOM
      1 CA        -83.6771   28.4792  -72.3750 C.3       0 UNK        -0.1998 
      2 C         -82.4472   28.0479  -73.1586 C.2       0 UNK         0.4909 
      3 O         -81.6665   27.2341  -72.6652 O.2       0 UNK        -0.5240 
      4 N         -82.2750   28.5854  -74.3750 N.am      1 UNK        -0.4739 
      5 CA        -81.1783   28.3552  -75.3343 C.3       1 UNK         0.0864 
      6 C6        -79.7717   28.7312  -74.7978 C.3       11 UNK        -0.0881 
      7 S7        -79.6134   30.5152  -74.4262 S.3       11 UNK        -0.2682 
      8 C8        -79.7790   30.5979  -72.6115 C.3       11 UNK         0.0289 
      9 C9        -78.5475   30.0698  -71.8912 C.ar      11 UNK        -0.0687 
     10 C10       -78.5027   28.7422  -71.4594 C.ar      11 UNK        -0.0823 
     11 C11       -77.3596   28.2366  -70.8350 C.ar      11 UNK        -0.0830 
     12 C12       -76.2791   29.0865  -70.5837 C.ar      11 UNK        -0.1021 
     13 C13       -76.3201   30.4236  -70.9899 C.ar      11 UNK        -0.0753 
     14 C14       -77.4539   30.9078  -71.6511 C.ar      11 UNK        -0.0933 
     15 C15       -75.1431   31.3451  -70.7106 C.3       11 UNK         0.0166 
     16 S16       -73.8301   31.1582  -71.9624 S.3       11 UNK        -0.2615 
     17 C17       -72.3949   30.6162  -70.9602 C.3       11 UNK        -0.0865 
     18 CA        -71.7519   29.2880  -71.4388 C.3       10 UNK         0.0862 
     19 C         -72.6437   28.0485  -71.1307 C.2       10 UNK         0.5551 
     20 N         -73.0804   27.2713  -72.1146 N.am      10 UNK        -0.7319 
     21 O         -72.9298   27.7811  -69.9664 O.2       10 UNK        -0.5018 
     22 N         -71.2837   29.3904  -72.8278 N.am      10 UNK        -0.4509 
     23 C         -70.3363   28.6206  -73.3769 C.2       10 UNK         0.4899 
     24 O         -69.6621   27.8104  -72.7385 O.2       10 UNK        -0.4839 
     25 CA        -70.1055   28.7875  -74.8942 C.3       9 UNK         0.0222 
     26 CB        -69.4631   27.5366  -75.5313 C.3       9 UNK        -0.1966 
     27 N         -71.3076   29.1784  -75.6475 N.am      9 UNK        -0.4218 
     28 C         -72.4769   28.5217  -75.7054 C.2       9 UNK         0.5020 
     29 O         -72.7322   27.5118  -75.0457 O.2       9 UNK        -0.5274 
     30 CA        -73.5668   29.0910  -76.6318 C.3       8 UNK         0.0270 
     31 CB        -73.1731   30.3749  -77.3998 C.3       8 UNK        -0.1976 
     32 N         -74.0625   28.0502  -77.5371 N.am      8 UNK        -0.4313 
     33 C         -73.3783   27.4060  -78.4976 C.2       8 UNK         0.5041 
     34 O         -72.2293   27.7027  -78.8296 O.2       8 UNK        -0.5577 
     35 CA        -74.0670   26.2201  -79.2073 C.3       7 UNK         0.0284 
     36 CB        -73.1630   24.9743  -79.2026 C.3       7 UNK        -0.1958 
     37 N         -75.3519   25.8648  -78.6020 N.am      7 UNK        -0.4454 
     38 C         -76.5374   26.3945  -78.9373 C.2       7 UNK         0.5089 
     39 O         -76.6965   27.1745  -79.8761 O.2       7 UNK        -0.5125 
     40 CA        -77.7440   26.0268  -78.0500 C.3       6 UNK         0.0408 
     41 CB        -78.5893   24.9356  -78.7232 C.3       6 UNK        -0.1791 
     42 N         -77.3603   25.5983  -76.6981 N.am      6 UNK        -0.4762 
     43 C         -76.7439   26.3916  -75.8053 C.2       6 UNK         0.5007 
     44 O         -76.5273   27.5839  -76.0187 O.2       6 UNK        -0.5032 
     45 CA        -76.2205   25.7702  -74.4933 C.3       5 UNK         0.0783 
     46 C46       -77.0053   26.3141  -73.2794 C.3       11 UNK        -0.0857 
     47 S47       -76.2566   25.8319  -71.6849 S.3       11 UNK        -0.2512 
     48 C48       -77.2779   26.7573  -70.4874 C.3       11 UNK         0.0225 
     49 N         -76.1853   24.3064  -74.5244 N.am      5 UNK        -0.4615 
     50 C         -75.3454   23.5780  -75.2720 C.2       4 UNK         0.5053 
     51 O         -74.5085   24.0677  -76.0301 O.2       4 UNK        -0.5105 
     52 CA        -75.5006   22.0479  -75.2025 C.3       4 UNK         0.0263 
     53 CB        -74.5744   21.4632  -74.1245 C.3       4 UNK        -0.1981 
     54 N         -76.8796   21.6139  -74.9498 N.am      4 UNK        -0.4224 
     55 C         -77.9144   21.8575  -75.7666 C.2       3 UNK         0.4895 
     56 O         -77.7986   22.4378  -76.8469 O.2       3 UNK        -0.5091 
     57 CA        -79.3138   21.3971  -75.3136 C.3       3 UNK         0.0250 
     58 CB        -79.3880   20.9458  -73.8359 C.3       3 UNK        -0.1996 
     59 N         -80.3365   22.4139  -75.5946 N.am      3 UNK        -0.4254 
     60 C         -80.3773   23.6695  -75.1225 C.2       2 UNK         0.5004 
     61 O         -79.5363   24.1475  -74.3575 O.2       2 UNK        -0.5226 
     62 CA        -81.5842   24.5092  -75.5694 C.3       2 UNK         0.0269 
     63 CB        -82.8806   23.9684  -74.9393 C.3       2 UNK        -0.1926 
     64 N         -81.4361   25.9056  -75.1605 N.am      2 UNK        -0.4687 
     65 C         -81.1955   26.9436  -75.9669 C.2       1 UNK         0.5165 
     66 O         -81.0393   26.8329  -77.1832 O.2       1 UNK        -0.5079 
     67 H67       -83.3783   28.9281  -71.4282 H         1 UNK         0.0900 
     68 H68       -84.2757   29.2076  -72.9216 H         1 UNK         0.0900 
     69 H69       -84.3056   27.6156  -72.1598 H         1 UNK         0.0900 
     70 H70       -82.9793   29.2286  -74.7095 H         1 UNK         0.2959 
     71 H71       -81.3887   29.0344  -76.1627 H         1 UNK         0.1079 
     72 H72       -79.5077   28.1280  -73.9316 H         1 UNK         0.0837 
     73 H73       -79.0159   28.5066  -75.5521 H         1 UNK         0.0837 
     74 H74       -80.6694   30.0588  -72.2913 H         1 UNK         0.0685 
     75 H75       -79.9442   31.6383  -72.3277 H         1 UNK         0.0685 
     76 H76       -79.3441   28.0886  -71.6453 H         1 UNK         0.1434 
     77 H77       -75.3962   28.6993  -70.0951 H         1 UNK         0.1329 
     78 H78       -77.4860   31.9372  -71.9812 H         1 UNK         0.1335 
     79 H79       -74.7671   31.1551  -69.7052 H         1 UNK         0.0680 
     80 H80       -75.4729   32.3852  -70.7101 H         1 UNK         0.0680 
     81 H81       -72.6617   30.5406  -69.9053 H         1 UNK         0.1032 
     82 H82       -71.6480   31.4103  -71.0037 H         1 UNK         0.1032 
     83 H83       -70.8615   29.1472  -70.8226 H         1 UNK         0.0461 
     84 H84       -73.6741   26.4898  -71.8878 H         1 UNK         0.3453 
     85 H85       -72.8481   27.4646  -73.0834 H         1 UNK         0.3453 
     86 H86       -71.8068   30.0176  -73.4207 H         1 UNK         0.2984 
     87 H87       -69.3988   29.6116  -75.0011 H         1 UNK         0.0554 
     88 H88       -68.4971   27.3136  -75.0767 H         1 UNK         0.0847 
     89 H89       -69.2918   27.6778  -76.5986 H         1 UNK         0.0847 
     90 H90       -70.0928   26.6545  -75.4083 H         1 UNK         0.0847 
     91 H91       -71.2131   30.0060  -76.2199 H         1 UNK         0.3141 
     92 H92       -74.4040   29.3479  -75.9809 H         1 UNK         0.0743 
     93 H93       -72.9349   31.1883  -76.7132 H         1 UNK         0.0784 
     94 H94       -72.3125   30.2250  -78.0523 H         1 UNK         0.0784 
     95 H95       -73.9979   30.7211  -78.0228 H         1 UNK         0.0784 
     96 H96       -74.9914   27.7146  -77.3045 H         1 UNK         0.3213 
     97 H97       -74.2262   26.5170  -80.2462 H         1 UNK         0.0855 
     98 H98       -72.9145   24.6615  -78.1877 H         1 UNK         0.0814 
     99 H99       -72.2236   25.1685  -79.7218 H         1 UNK         0.0814 
    100 H100      -73.6406   24.1337  -79.7062 H         1 UNK         0.0814 
    101 H101      -75.3101   25.2401  -77.8046 H         1 UNK         0.3105 
    102 H102      -78.3622   26.9210  -77.9484 H         1 UNK         0.0547 
    103 H103      -78.0039   24.0388  -78.9274 H         1 UNK         0.0837 
    104 H104      -78.9865   25.2872  -79.6761 H         1 UNK         0.0837 
    105 H105      -79.4397   24.6504  -78.1045 H         1 UNK         0.0837 
    106 H106      -77.5046   24.6208  -76.4705 H         1 UNK         0.3020 
    107 H107      -75.1873   26.1154  -74.3983 H         1 UNK         0.1245 
    108 H108      -78.0463   25.9891  -73.2991 H         1 UNK         0.0781 
    109 H109      -77.0194   27.4037  -73.3295 H         1 UNK         0.0781 
    110 H110      -76.8539   26.6372  -69.4895 H         1 UNK         0.0836 
    111 H111      -78.2744   26.3139  -70.4528 H         1 UNK         0.0836 
    112 H112      -76.8759   23.8353  -73.9572 H         1 UNK         0.3022 
    113 H113      -75.1976   21.6447  -76.1712 H         1 UNK         0.0747 
    114 H114      -74.6083   20.3736  -74.1190 H         1 UNK         0.0793 
    115 H115      -73.5377   21.7523  -74.3039 H         1 UNK         0.0793 
    116 H116      -74.8421   21.8145  -73.1271 H         1 UNK         0.0793 
    117 H117      -77.0554   21.1322  -74.0799 H         1 UNK         0.3047 
    118 H118      -79.5602   20.5351  -75.9352 H         1 UNK         0.0822 
    119 H119      -80.4031   20.6501  -73.5700 H         1 UNK         0.0807 
    120 H120      -79.0884   21.7377  -73.1480 H         1 UNK         0.0807 
    121 H121      -78.7514   20.0800  -73.6496 H         1 UNK         0.0807 
    122 H122      -81.0590   22.1258  -76.2395 H         1 UNK         0.2946 
    123 H123      -81.6612   24.4397  -76.6568 H         1 UNK         0.1144 
    124 H124      -83.7436   24.5619  -75.2421 H         1 UNK         0.0793 
    125 H125      -82.8336   23.9816  -73.8494 H         1 UNK         0.0793 
    126 H126      -83.0769   22.9403  -75.2455 H         1 UNK         0.0793 
    127 H127      -81.4826   26.0951  -74.1622 H         1 UNK         0.2896 
@<TRIPOS>BOND
     1    1    2 1    
     2    1   67 1    
     3    1   68 1    
     4    1   69 1    
     5    2    3 2    
     6    2    4 am   BACKBONE|DICT|INTERRES
     7    4    5 1    
     8    4   70 1    
     9    5    6 1    
    10    5   65 1    
    11    5   71 1    
    12    6    7 1    
    13    6   72 1    
    14    6   73 1    
    15    7    8 1    
    16    8    9 1    
    17    8   74 1    
    18    8   75 1    
    19    9   10 ar   
    20    9   14 ar   
    21   10   11 ar   
    22   10   76 1    
    23   11   12 ar   
    24   11   48 1    
    25   12   13 ar   
    26   12   77 1    
    27   13   14 ar   
    28   13   15 1    
    29   14   78 1    
    30   15   16 1    
    31   15   79 1    
    32   15   80 1    
    33   16   17 1    
    34   17   18 1    
    35   17   81 1    
    36   17   82 1    
    37   18   19 1    
    38   18   22 1    
    39   18   83 1    
    40   19   20 am   BACKBONE|DICT|INTERRES
    41   19   21 2    
    42   20   84 1    
    43   20   85 1    
    44   22   23 am   BACKBONE|DICT|INTERRES
    45   22   86 1    
    46   23   24 2    
    47   23   25 1    
    48   25   26 1    
    49   25   27 1    
    50   25   87 1    
    51   26   88 1    
    52   26   89 1    
    53   26   90 1    
    54   27   28 am   BACKBONE|DICT|INTERRES
    55   27   91 1    
    56   28   29 2    
    57   28   30 1    
    58   30   31 1    
    59   30   32 1    
    60   30   92 1    
    61   31   93 1    
    62   31   94 1    
    63   31   95 1    
    64   32   33 am   BACKBONE|DICT|INTERRES
    65   32   96 1    
    66   33   34 2    
    67   33   35 1    
    68   35   36 1    
    69   35   37 1    
    70   35   97 1    
    71   36   98 1    
    72   36   99 1    
    73   36  100 1    
    74   37   38 am   BACKBONE|DICT|INTERRES
    75   37  101 1    
    76   38   39 2    
    77   38   40 1    
    78   40   41 1    
    79   40   42 1    
    80   40  102 1    
    81   41  103 1    
    82   41  104 1    
    83   41  105 1    
    84   42   43 am   BACKBONE|DICT|INTERRES
    85   42  106 1    
    86   43   44 2    
    87   43   45 1    
    88   45   46 1    
    89   45   49 1    
    90   45  107 1    
    91   46   47 1    
    92   46  108 1    
    93   46  109 1    
    94   47   48 1    
    95   48  110 1    
    96   48  111 1    
    97   49   50 am   BACKBONE|DICT|INTERRES
    98   49  112 1    
    99   50   51 2    
   100   50   52 1    
   101   52   53 1    
   102   52   54 1    
   103   52  113 1    
   104   53  114 1    
   105   53  115 1    
   106   53  116 1    
   107   54   55 am   BACKBONE|DICT|INTERRES
   108   54  117 1    
   109   55   56 2    
   110   55   57 1    
   111   57   58 1    
   112   57   59 1    
   113   57  118 1    
   114   58  119 1    
   115   58  120 1    
   116   58  121 1    
   117   59   60 am   BACKBONE|DICT|INTERRES
   118   59  122 1    
   119   60   61 2    
   120   60   62 1    
   121   62   63 1    
   122   62   64 1    
   123   62  123 1    
   124   63  124 1    
   125   63  125 1    
   126   63  126 1    
   127   64   65 am   BACKBONE|DICT|INTERRES
   128   64  127 1    
   129   65   66 2    
@<TRIPOS>SUBSTRUCTURE
     1 UNK         1 GROUP             0       ****    0 ROOT    
