@<TRIPOS>MOLECULE
3R135
127   129    1
SMALL
USER_CHARGES


@<TRIPOS>ATOM
      1 CA        -81.9270   31.5960  -74.5508 C.3       0 UNK        -0.1998 
      2 C         -81.5948   30.1841  -74.0926 C.2       0 UNK         0.4909 
      3 O         -82.2833   29.2395  -74.4789 O.2       0 UNK        -0.5240 
      4 N         -80.5385   30.0409  -73.2816 N.am      1 UNK        -0.4739 
      5 CA        -79.9938   28.7799  -72.7623 C.3       1 UNK         0.0864 
      6 C6        -80.9359   28.0448  -71.7622 C.3       11 UNK        -0.0881 
      7 S7        -80.8259   28.7793  -70.0946 S.3       11 UNK        -0.2682 
      8 C8        -79.6465   27.6520  -69.2701 C.3       11 UNK         0.0289 
      9 C9        -78.2716   27.6852  -69.9262 C.ar      11 UNK        -0.0687 
     10 C10       -77.9255   26.7280  -70.8850 C.ar      11 UNK        -0.0823 
     11 C11       -76.7049   26.8085  -71.5596 C.ar      11 UNK        -0.0830 
     12 C12       -75.7951   27.8134  -71.2214 C.ar      11 UNK        -0.1021 
     13 C13       -76.1254   28.7718  -70.2600 C.ar      11 UNK        -0.0753 
     14 C14       -77.3636   28.7012  -69.6126 C.ar      11 UNK        -0.0933 
     15 C15       -75.1638   29.9073  -69.9470 C.3       11 UNK         0.0166 
     16 S16       -75.5355   31.3854  -70.9464 S.3       11 UNK        -0.2615 
     17 C17       -74.6991   31.0253  -72.5326 C.3       11 UNK        -0.0865 
     18 CA        -75.6309   30.4387  -73.6294 C.3       10 UNK         0.0862 
     19 C         -76.7223   31.4432  -74.1029 C.2       10 UNK         0.5551 
     20 N         -76.3950   32.4106  -74.9459 N.am      10 UNK        -0.7319 
     21 O         -77.8871   31.3096  -73.7371 O.2       10 UNK        -0.5018 
     22 N         -74.8688   29.7956  -74.7177 N.am      10 UNK        -0.4509 
     23 C         -74.0335   30.3743  -75.5928 C.2       10 UNK         0.4899 
     24 O         -73.7599   31.5761  -75.5933 O.2       10 UNK        -0.4839 
     25 CA        -73.4089   29.4368  -76.6492 C.3       9 UNK         0.0222 
     26 CB        -72.3295   30.1335  -77.5047 C.3       9 UNK        -0.1966 
     27 N         -72.8868   28.1837  -76.0841 N.am      9 UNK        -0.4218 
     28 C         -71.9607   28.0573  -75.1192 C.2       9 UNK         0.5020 
     29 O         -71.4180   29.0061  -74.5520 O.2       9 UNK        -0.5274 
     30 CA        -71.5812   26.6290  -74.6897 C.3       8 UNK         0.0270 
     31 CB        -72.3079   26.2615  -73.3855 C.3       8 UNK        -0.1976 
     32 N         -71.8323   25.6014  -75.7105 N.am      8 UNK        -0.4313 
     33 C         -71.0736   25.4327  -76.8039 C.2       8 UNK         0.5041 
     34 O         -70.1405   26.1773  -77.1066 O.2       8 UNK        -0.5577 
     35 CA        -71.3733   24.2159  -77.6974 C.3       7 UNK         0.0284 
     36 CB        -70.5067   23.0189  -77.2733 C.3       7 UNK        -0.1958 
     37 N         -72.7798   23.8054  -77.7085 N.am      7 UNK        -0.4454 
     38 C         -73.7593   24.4456  -78.3581 C.2       7 UNK         0.5089 
     39 O         -73.6013   25.5144  -78.9477 O.2       7 UNK        -0.5125 
     40 CA        -75.1534   23.7920  -78.3390 C.3       6 UNK         0.0408 
     41 CB        -75.2110   22.5316  -79.2239 C.3       6 UNK        -0.1791 
     42 N         -75.6560   23.5449  -76.9832 N.am      6 UNK        -0.4762 
     43 C         -75.2145   22.6777  -76.0584 C.2       6 UNK         0.5007 
     44 O         -74.3301   21.8461  -76.2648 O.2       6 UNK        -0.5032 
     45 CA        -75.7912   22.8308  -74.6403 C.3       5 UNK         0.0783 
     46 C46       -74.9153   23.8582  -73.8763 C.3       11 UNK        -0.0857 
     47 S47       -75.5431   24.3658  -72.2390 S.3       11 UNK        -0.2512 
     48 C48       -76.4123   25.8838  -72.7274 C.3       11 UNK         0.0225 
     49 N         -77.2098   23.2097  -74.6913 N.am      5 UNK        -0.4615 
     50 C         -78.2156   22.4286  -74.2733 C.2       4 UNK         0.5053 
     51 O         -78.0591   21.2854  -73.8426 O.2       4 UNK        -0.5105 
     52 CA        -79.6420   23.0090  -74.3166 C.3       4 UNK         0.0263 
     53 CB        -80.0637   23.4894  -72.9190 C.3       4 UNK        -0.1981 
     54 N         -79.7966   24.1089  -75.2711 N.am      4 UNK        -0.4224 
     55 C         -79.8578   23.9437  -76.6008 C.2       3 UNK         0.4895 
     56 O         -79.8486   22.8410  -77.1492 O.2       3 UNK        -0.5091 
     57 CA        -79.9282   25.2067  -77.4820 C.3       3 UNK         0.0250 
     58 CB        -81.3765   25.4660  -77.9275 C.3       3 UNK        -0.1996 
     59 N         -79.3920   26.4284  -76.8727 N.am      3 UNK        -0.4254 
     60 C         -78.1460   26.5861  -76.4078 C.2       2 UNK         0.5004 
     61 O         -77.2999   25.6919  -76.3732 O.2       2 UNK        -0.5226 
     62 CA        -77.7938   27.9622  -75.8281 C.3       2 UNK         0.0269 
     63 CB        -77.5793   28.9772  -76.9634 C.3       2 UNK        -0.1926 
     64 N         -78.7177   28.5245  -74.8310 N.am      2 UNK        -0.4687 
     65 C         -79.4247   27.8835  -73.8838 C.2       1 UNK         0.5165 
     66 O         -79.5923   26.6635  -73.8478 O.2       1 UNK        -0.5079 
     67 H67       -81.2184   32.3274  -74.1621 H         1 UNK         0.0900 
     68 H68       -81.9078   31.6517  -75.6388 H         1 UNK         0.0900 
     69 H69       -82.9242   31.8755  -74.2120 H         1 UNK         0.0900 
     70 H70       -79.9798   30.8566  -73.0590 H         1 UNK         0.2959 
     71 H71       -79.0988   29.0744  -72.2119 H         1 UNK         0.1079 
     72 H72       -80.7055   26.9832  -71.6703 H         1 UNK         0.0837 
     73 H73       -81.9723   28.0809  -72.0987 H         1 UNK         0.0837 
     74 H74       -79.5579   27.9400  -68.2215 H         1 UNK         0.0685 
     75 H75       -80.0492   26.6379  -69.2734 H         1 UNK         0.0685 
     76 H76       -78.6311   25.9538  -71.1494 H         1 UNK         0.1434 
     77 H77       -74.8491   27.8802  -71.7411 H         1 UNK         0.1329 
     78 H78       -77.6328   29.4547  -68.8849 H         1 UNK         0.1335 
     79 H79       -75.2452   30.1714  -68.8915 H         1 UNK         0.0680 
     80 H80       -74.1295   29.5956  -70.1004 H         1 UNK         0.0680 
     81 H81       -73.8734   30.3382  -72.3427 H         1 UNK         0.1032 
     82 H82       -74.2311   31.9451  -72.8876 H         1 UNK         0.1032 
     83 H83       -76.1809   29.6150  -73.1764 H         1 UNK         0.0461 
     84 H84       -75.4378   32.4711  -75.2762 H         1 UNK         0.3453 
     85 H85       -77.0949   33.0588  -75.2688 H         1 UNK         0.3453 
     86 H86       -75.0020   28.8012  -74.8055 H         1 UNK         0.2984 
     87 H87       -74.2219   29.1536  -77.3193 H         1 UNK         0.0554 
     88 H88       -72.7393   31.0015  -78.0228 H         1 UNK         0.0847 
     89 H89       -71.9316   29.4617  -78.2652 H         1 UNK         0.0847 
     90 H90       -71.4943   30.4827  -76.8965 H         1 UNK         0.0847 
     91 H91       -73.2451   27.3332  -76.4956 H         1 UNK         0.3141 
     92 H92       -70.5090   26.6312  -74.4803 H         1 UNK         0.0743 
     93 H93       -73.3883   26.3487  -73.4852 H         1 UNK         0.0784 
     94 H94       -72.0734   25.2468  -73.0634 H         1 UNK         0.0784 
     95 H95       -72.0100   26.9307  -72.5771 H         1 UNK         0.0784 
     96 H96       -72.5632   24.9308  -75.5304 H         1 UNK         0.3213 
     97 H97       -71.0939   24.4887  -78.7177 H         1 UNK         0.0855 
     98 H98       -70.7543   22.6755  -76.2680 H         1 UNK         0.0814 
     99 H99       -69.4478   23.2822  -77.2765 H         1 UNK         0.0814 
    100 H100      -70.6308   22.1777  -77.9555 H         1 UNK         0.0814 
    101 H101      -73.0249   22.9408  -77.2337 H         1 UNK         0.3105 
    102 H102      -75.8442   24.5181  -78.7709 H         1 UNK         0.0547 
    103 H103      -74.9380   22.7696  -80.2527 H         1 UNK         0.0837 
    104 H104      -74.5291   21.7522  -78.8837 H         1 UNK         0.0837 
    105 H105      -76.2160   22.1105  -79.2450 H         1 UNK         0.0837 
    106 H106      -76.3436   24.2370  -76.6874 H         1 UNK         0.3020 
    107 H107      -75.6780   21.8637  -74.1449 H         1 UNK         0.1245 
    108 H108      -74.7634   24.7520  -74.4829 H         1 UNK         0.0781 
    109 H109      -73.9187   23.4409  -73.7185 H         1 UNK         0.0781 
    110 H110      -77.3388   25.6045  -73.2264 H         1 UNK         0.0836 
    111 H111      -75.8298   26.4319  -73.4674 H         1 UNK         0.0836 
    112 H112      -77.4266   24.1208  -75.0775 H         1 UNK         0.3022 
    113 H113      -80.3157   22.2018  -74.6122 H         1 UNK         0.0747 
    114 H114      -81.0799   23.8841  -72.9221 H         1 UNK         0.0793 
    115 H115      -80.0345   22.6703  -72.1992 H         1 UNK         0.0793 
    116 H116      -79.4015   24.2707  -72.5484 H         1 UNK         0.0793 
    117 H117      -79.8002   25.0513  -74.8864 H         1 UNK         0.3047 
    118 H118      -79.3282   25.0034  -78.3714 H         1 UNK         0.0822 
    119 H119      -81.4318   26.2847  -78.6452 H         1 UNK         0.0807 
    120 H120      -82.0188   25.7151  -77.0817 H         1 UNK         0.0807 
    121 H121      -81.8015   24.5854  -78.4116 H         1 UNK         0.0807 
    122 H122      -80.0238   27.2129  -76.8006 H         1 UNK         0.2946 
    123 H123      -76.8424   27.8312  -75.3140 H         1 UNK         0.1144 
    124 H124      -76.8840   28.5913  -77.7107 H         1 UNK         0.0793 
    125 H125      -77.1642   29.9147  -76.5961 H         1 UNK         0.0793 
    126 H126      -78.5130   29.2094  -77.4770 H         1 UNK         0.0793 
    127 H127      -78.6883   29.5331  -74.7385 H         1 UNK         0.2896 
@<TRIPOS>BOND
     1    1    2 1    
     2    1   67 1    
     3    1   68 1    
     4    1   69 1    
     5    2    3 2    
     6    2    4 am   BACKBONE|DICT|INTERRES
     7    4    5 1    
     8    4   70 1    
     9    5    6 1    
    10    5   65 1    
    11    5   71 1    
    12    6    7 1    
    13    6   72 1    
    14    6   73 1    
    15    7    8 1    
    16    8    9 1    
    17    8   74 1    
    18    8   75 1    
    19    9   10 ar   
    20    9   14 ar   
    21   10   11 ar   
    22   10   76 1    
    23   11   12 ar   
    24   11   48 1    
    25   12   13 ar   
    26   12   77 1    
    27   13   14 ar   
    28   13   15 1    
    29   14   78 1    
    30   15   16 1    
    31   15   79 1    
    32   15   80 1    
    33   16   17 1    
    34   17   18 1    
    35   17   81 1    
    36   17   82 1    
    37   18   19 1    
    38   18   22 1    
    39   18   83 1    
    40   19   20 am   BACKBONE|DICT|INTERRES
    41   19   21 2    
    42   20   84 1    
    43   20   85 1    
    44   22   23 am   BACKBONE|DICT|INTERRES
    45   22   86 1    
    46   23   24 2    
    47   23   25 1    
    48   25   26 1    
    49   25   27 1    
    50   25   87 1    
    51   26   88 1    
    52   26   89 1    
    53   26   90 1    
    54   27   28 am   BACKBONE|DICT|INTERRES
    55   27   91 1    
    56   28   29 2    
    57   28   30 1    
    58   30   31 1    
    59   30   32 1    
    60   30   92 1    
    61   31   93 1    
    62   31   94 1    
    63   31   95 1    
    64   32   33 am   BACKBONE|DICT|INTERRES
    65   32   96 1    
    66   33   34 2    
    67   33   35 1    
    68   35   36 1    
    69   35   37 1    
    70   35   97 1    
    71   36   98 1    
    72   36   99 1    
    73   36  100 1    
    74   37   38 am   BACKBONE|DICT|INTERRES
    75   37  101 1    
    76   38   39 2    
    77   38   40 1    
    78   40   41 1    
    79   40   42 1    
    80   40  102 1    
    81   41  103 1    
    82   41  104 1    
    83   41  105 1    
    84   42   43 am   BACKBONE|DICT|INTERRES
    85   42  106 1    
    86   43   44 2    
    87   43   45 1    
    88   45   46 1    
    89   45   49 1    
    90   45  107 1    
    91   46   47 1    
    92   46  108 1    
    93   46  109 1    
    94   47   48 1    
    95   48  110 1    
    96   48  111 1    
    97   49   50 am   BACKBONE|DICT|INTERRES
    98   49  112 1    
    99   50   51 2    
   100   50   52 1    
   101   52   53 1    
   102   52   54 1    
   103   52  113 1    
   104   53  114 1    
   105   53  115 1    
   106   53  116 1    
   107   54   55 am   BACKBONE|DICT|INTERRES
   108   54  117 1    
   109   55   56 2    
   110   55   57 1    
   111   57   58 1    
   112   57   59 1    
   113   57  118 1    
   114   58  119 1    
   115   58  120 1    
   116   58  121 1    
   117   59   60 am   BACKBONE|DICT|INTERRES
   118   59  122 1    
   119   60   61 2    
   120   60   62 1    
   121   62   63 1    
   122   62   64 1    
   123   62  123 1    
   124   63  124 1    
   125   63  125 1    
   126   63  126 1    
   127   64   65 am   BACKBONE|DICT|INTERRES
   128   64  127 1    
   129   65   66 2    
@<TRIPOS>SUBSTRUCTURE
     1 UNK         1 GROUP             0       ****    0 ROOT    
