@<TRIPOS>MOLECULE
3R135
127   129    1
SMALL
USER_CHARGES


@<TRIPOS>ATOM
      1 CA        -79.9998   21.3429  -72.1526 C.3       0 UNK        -0.1998 
      2 C         -80.4890   22.7576  -72.4208 C.2       0 UNK         0.4909 
      3 O         -79.8306   23.4894  -73.1592 O.2       0 UNK        -0.5240 
      4 N         -81.6365   23.1291  -71.8304 N.am      1 UNK        -0.4739 
      5 CA        -82.3265   24.4272  -71.9206 C.3       1 UNK         0.0864 
      6 C6        -81.8383   25.4638  -70.8604 C.3       11 UNK        -0.0881 
      7 S7        -80.1053   26.0256  -71.0259 S.3       11 UNK        -0.2682 
      8 C8        -80.2538   27.8337  -70.8474 C.3       11 UNK         0.0289 
      9 C9        -79.0957   28.5708  -71.5108 C.ar      11 UNK        -0.0687 
     10 C10       -79.3511   29.5726  -72.4532 C.ar      11 UNK        -0.0823 
     11 C11       -78.3002   30.2681  -73.0604 C.ar      11 UNK        -0.0830 
     12 C12       -76.9822   29.9451  -72.7234 C.ar      11 UNK        -0.1021 
     13 C13       -76.7109   28.9351  -71.7960 C.ar      11 UNK        -0.0753 
     14 C14       -77.7711   28.2656  -71.1790 C.ar      11 UNK        -0.0933 
     15 C15       -75.2729   28.5468  -71.4921 C.3       11 UNK         0.0166 
     16 S16       -74.3796   29.8891  -70.6492 S.3       11 UNK        -0.2615 
     17 C17       -72.6800   29.2247  -70.6296 C.3       11 UNK        -0.0865 
     18 CA        -71.8037   29.8055  -71.7700 C.3       10 UNK         0.0862 
     19 C         -70.3222   29.3807  -71.5927 C.2       10 UNK         0.5551 
     20 N         -69.4599   30.2882  -71.1566 N.am      10 UNK        -0.7319 
     21 O         -69.9644   28.2232  -71.8006 O.2       10 UNK        -0.5018 
     22 N         -72.3154   29.4097  -73.0874 N.am      10 UNK        -0.4509 
     23 C         -71.9857   29.9778  -74.2531 C.2       10 UNK         0.4899 
     24 O         -71.2610   30.9690  -74.3550 O.2       10 UNK        -0.4839 
     25 CA        -72.5875   29.3173  -75.5098 C.3       9 UNK         0.0222 
     26 CB        -71.9507   29.8116  -76.8259 C.3       9 UNK        -0.1966 
     27 N         -72.5771   27.8503  -75.4306 N.am      9 UNK        -0.4218 
     28 C         -71.5010   27.0523  -75.3378 C.2       9 UNK         0.5020 
     29 O         -70.3359   27.4476  -75.3854 O.2       9 UNK        -0.5274 
     30 CA        -71.7701   25.5532  -75.1585 C.3       8 UNK         0.0270 
     31 CB        -72.1634   25.2418  -73.7028 C.3       8 UNK        -0.1976 
     32 N         -72.8217   25.0886  -76.0679 N.am      8 UNK        -0.4313 
     33 C         -72.6220   24.2366  -77.0818 C.2       8 UNK         0.5041 
     34 O         -71.5283   23.7407  -77.3582 O.2       8 UNK        -0.5577 
     35 CA        -73.8426   23.8485  -77.9320 C.3       7 UNK         0.0284 
     36 CB        -74.5991   22.6733  -77.2918 C.3       7 UNK        -0.1958 
     37 N         -74.7730   24.9504  -78.1885 N.am      7 UNK        -0.4454 
     38 C         -74.5219   25.9715  -79.0212 C.2       7 UNK         0.5089 
     39 O         -73.4389   26.1538  -79.5775 O.2       7 UNK        -0.5125 
     40 CA        -75.6822   26.9375  -79.3043 C.3       6 UNK         0.0408 
     41 CB        -76.6870   26.3044  -80.2809 C.3       6 UNK        -0.1791 
     42 N         -76.3723   27.3078  -78.0710 N.am      6 UNK        -0.4762 
     43 C         -76.1115   28.4123  -77.3575 C.2       6 UNK         0.5007 
     44 O         -75.3195   29.2841  -77.7139 O.2       6 UNK        -0.5032 
     45 CA        -76.8383   28.5593  -76.0034 C.3       5 UNK         0.0783 
     46 C46       -78.0885   29.4730  -76.1184 C.3       11 UNK        -0.0857 
     47 S47       -77.7012   31.1922  -75.6499 S.3       11 UNK        -0.2512 
     48 C48       -78.6019   31.3721  -74.0711 C.3       11 UNK         0.0225 
     49 N         -77.1584   27.2635  -75.3983 N.am      5 UNK        -0.4615 
     50 C         -76.2420   26.3969  -74.9455 C.2       4 UNK         0.5053 
     51 O         -75.0320   26.6225  -74.9622 O.2       4 UNK        -0.5105 
     52 CA        -76.7316   25.0304  -74.4379 C.3       4 UNK         0.0263 
     53 CB        -76.8418   25.0478  -72.9075 C.3       4 UNK        -0.1981 
     54 N         -78.0064   24.5962  -75.0170 N.am      4 UNK        -0.4224 
     55 C         -78.2492   24.4265  -76.3252 C.2       3 UNK         0.4895 
     56 O         -77.3982   24.5752  -77.2035 O.2       3 UNK        -0.5091 
     57 CA        -79.7012   24.1203  -76.7273 C.3       3 UNK         0.0250 
     58 CB        -79.9921   22.6153  -76.6221 C.3       3 UNK        -0.1996 
     59 N         -80.6814   24.8746  -75.9382 N.am      3 UNK        -0.4254 
     60 C         -80.7769   26.2111  -75.8990 C.2       2 UNK         0.5004 
     61 O         -80.0575   26.9567  -76.5627 O.2       2 UNK        -0.5226 
     62 CA        -81.8032   26.8409  -74.9388 C.3       2 UNK         0.0269 
     63 CB        -83.1674   27.0386  -75.6274 C.3       2 UNK        -0.1926 
     64 N         -81.9307   26.1490  -73.6475 N.am      2 UNK        -0.4687 
     65 C         -82.4455   24.9420  -73.3759 C.2       1 UNK         0.5165 
     66 O         -82.9710   24.2178  -74.2241 O.2       1 UNK        -0.5079 
     67 H67       -79.9340   20.7871  -73.0875 H         1 UNK         0.0900 
     68 H68       -79.0079   21.3711  -71.7025 H         1 UNK         0.0900 
     69 H69       -80.6633   20.8003  -71.4796 H         1 UNK         0.0900 
     70 H70       -82.1181   22.4438  -71.2655 H         1 UNK         0.2959 
     71 H71       -83.3591   24.1994  -71.6501 H         1 UNK         0.1079 
     72 H72       -82.5102   26.3235  -70.8512 H         1 UNK         0.0837 
     73 H73       -81.9362   25.0244  -69.8666 H         1 UNK         0.0837 
     74 H74       -81.2013   28.1683  -71.2716 H         1 UNK         0.0685 
     75 H75       -80.2824   28.0867  -69.7868 H         1 UNK         0.0685 
     76 H76       -80.3727   29.8191  -72.7085 H         1 UNK         0.1434 
     77 H77       -76.1628   30.4736  -73.1913 H         1 UNK         0.1329 
     78 H78       -77.5686   27.4879  -70.4554 H         1 UNK         0.1335 
     79 H79       -74.7764   28.2971  -72.4300 H         1 UNK         0.0680 
     80 H80       -75.2355   27.6488  -70.8734 H         1 UNK         0.0680 
     81 H81       -72.7027   28.1337  -70.6685 H         1 UNK         0.1032 
     82 H82       -72.2485   29.4781  -69.6591 H         1 UNK         0.1032 
     83 H83       -71.8574   30.8949  -71.7103 H         1 UNK         0.0461 
     84 H84       -68.4969   30.0236  -71.0192 H         1 UNK         0.3453 
     85 H85       -69.7488   31.2375  -70.9775 H         1 UNK         0.3453 
     86 H86       -72.8802   28.5760  -73.1085 H         1 UNK         0.2984 
     87 H87       -73.6375   29.6108  -75.5261 H         1 UNK         0.0554 
     88 H88       -72.0875   30.8870  -76.9443 H         1 UNK         0.0847 
     89 H89       -72.4097   29.3315  -77.6904 H         1 UNK         0.0847 
     90 H90       -70.8790   29.6148  -76.8604 H         1 UNK         0.0847 
     91 H91       -73.4940   27.4155  -75.3345 H         1 UNK         0.3141 
     92 H92       -70.8317   25.0327  -75.3612 H         1 UNK         0.0743 
     93 H93       -73.0970   25.7239  -73.4132 H         1 UNK         0.0784 
     94 H94       -72.2818   24.1693  -73.5489 H         1 UNK         0.0784 
     95 H95       -71.3928   25.5853  -73.0107 H         1 UNK         0.0784 
     96 H96       -73.7496   25.4701  -75.9183 H         1 UNK         0.3213 
     97 H97       -73.4650   23.5080  -78.8989 H         1 UNK         0.0855 
     98 H98       -75.0140   22.9372  -76.3199 H         1 UNK         0.0814 
     99 H99       -73.9370   21.8194  -77.1415 H         1 UNK         0.0814 
    100 H100      -75.4207   22.3380  -77.9251 H         1 UNK         0.0814 
    101 H101      -75.7119   24.8528  -77.8053 H         1 UNK         0.3105 
    102 H102      -75.2699   27.8275  -79.7847 H         1 UNK         0.0547 
    103 H103      -77.4838   27.0033  -80.5350 H         1 UNK         0.0837 
    104 H104      -77.1497   25.4072  -79.8678 H         1 UNK         0.0837 
    105 H105      -76.1973   26.0192  -81.2129 H         1 UNK         0.0837 
    106 H106      -77.0154   26.6238  -77.6889 H         1 UNK         0.3020 
    107 H107      -76.1201   29.0287  -75.3280 H         1 UNK         0.1245 
    108 H108      -78.8913   29.1156  -75.4727 H         1 UNK         0.0781 
    109 H109      -78.5152   29.4635  -77.1237 H         1 UNK         0.0781 
    110 H110      -79.6700   31.4131  -74.2901 H         1 UNK         0.0836 
    111 H111      -78.3441   32.3346  -73.6274 H         1 UNK         0.0836 
    112 H112      -78.1332   26.9930  -75.4071 H         1 UNK         0.3022 
    113 H113      -75.9774   24.2928  -74.7129 H         1 UNK         0.0747 
    114 H114      -77.0994   24.0637  -72.5155 H         1 UNK         0.0793 
    115 H115      -75.8991   25.3461  -72.4469 H         1 UNK         0.0793 
    116 H116      -77.6060   25.7493  -72.5747 H         1 UNK         0.0793 
    117 H117      -78.7549   24.3812  -74.3577 H         1 UNK         0.3047 
    118 H118      -79.8203   24.4192  -77.7708 H         1 UNK         0.0822 
    119 H119      -80.9950   22.3797  -76.9786 H         1 UNK         0.0807 
    120 H120      -79.9088   22.2568  -75.5957 H         1 UNK         0.0807 
    121 H121      -79.2896   22.0399  -77.2265 H         1 UNK         0.0807 
    122 H122      -81.3138   24.3435  -75.3486 H         1 UNK         0.2946 
    123 H123      -81.4181   27.8334  -74.6975 H         1 UNK         0.1144 
    124 H124      -83.6070   26.0944  -75.9494 H         1 UNK         0.0793 
    125 H125      -83.0640   27.6633  -76.5157 H         1 UNK         0.0793 
    126 H126      -83.8784   27.5326  -74.9652 H         1 UNK         0.0793 
    127 H127      -81.4418   26.5917  -72.8798 H         1 UNK         0.2896 
@<TRIPOS>BOND
     1    1    2 1    
     2    1   67 1    
     3    1   68 1    
     4    1   69 1    
     5    2    3 2    
     6    2    4 am   BACKBONE|DICT|INTERRES
     7    4    5 1    
     8    4   70 1    
     9    5    6 1    
    10    5   65 1    
    11    5   71 1    
    12    6    7 1    
    13    6   72 1    
    14    6   73 1    
    15    7    8 1    
    16    8    9 1    
    17    8   74 1    
    18    8   75 1    
    19    9   10 ar   
    20    9   14 ar   
    21   10   11 ar   
    22   10   76 1    
    23   11   12 ar   
    24   11   48 1    
    25   12   13 ar   
    26   12   77 1    
    27   13   14 ar   
    28   13   15 1    
    29   14   78 1    
    30   15   16 1    
    31   15   79 1    
    32   15   80 1    
    33   16   17 1    
    34   17   18 1    
    35   17   81 1    
    36   17   82 1    
    37   18   19 1    
    38   18   22 1    
    39   18   83 1    
    40   19   20 am   BACKBONE|DICT|INTERRES
    41   19   21 2    
    42   20   84 1    
    43   20   85 1    
    44   22   23 am   BACKBONE|DICT|INTERRES
    45   22   86 1    
    46   23   24 2    
    47   23   25 1    
    48   25   26 1    
    49   25   27 1    
    50   25   87 1    
    51   26   88 1    
    52   26   89 1    
    53   26   90 1    
    54   27   28 am   BACKBONE|DICT|INTERRES
    55   27   91 1    
    56   28   29 2    
    57   28   30 1    
    58   30   31 1    
    59   30   32 1    
    60   30   92 1    
    61   31   93 1    
    62   31   94 1    
    63   31   95 1    
    64   32   33 am   BACKBONE|DICT|INTERRES
    65   32   96 1    
    66   33   34 2    
    67   33   35 1    
    68   35   36 1    
    69   35   37 1    
    70   35   97 1    
    71   36   98 1    
    72   36   99 1    
    73   36  100 1    
    74   37   38 am   BACKBONE|DICT|INTERRES
    75   37  101 1    
    76   38   39 2    
    77   38   40 1    
    78   40   41 1    
    79   40   42 1    
    80   40  102 1    
    81   41  103 1    
    82   41  104 1    
    83   41  105 1    
    84   42   43 am   BACKBONE|DICT|INTERRES
    85   42  106 1    
    86   43   44 2    
    87   43   45 1    
    88   45   46 1    
    89   45   49 1    
    90   45  107 1    
    91   46   47 1    
    92   46  108 1    
    93   46  109 1    
    94   47   48 1    
    95   48  110 1    
    96   48  111 1    
    97   49   50 am   BACKBONE|DICT|INTERRES
    98   49  112 1    
    99   50   51 2    
   100   50   52 1    
   101   52   53 1    
   102   52   54 1    
   103   52  113 1    
   104   53  114 1    
   105   53  115 1    
   106   53  116 1    
   107   54   55 am   BACKBONE|DICT|INTERRES
   108   54  117 1    
   109   55   56 2    
   110   55   57 1    
   111   57   58 1    
   112   57   59 1    
   113   57  118 1    
   114   58  119 1    
   115   58  120 1    
   116   58  121 1    
   117   59   60 am   BACKBONE|DICT|INTERRES
   118   59  122 1    
   119   60   61 2    
   120   60   62 1    
   121   62   63 1    
   122   62   64 1    
   123   62  123 1    
   124   63  124 1    
   125   63  125 1    
   126   63  126 1    
   127   64   65 am   BACKBONE|DICT|INTERRES
   128   64  127 1    
   129   65   66 2    
@<TRIPOS>SUBSTRUCTURE
     1 UNK         1 GROUP             0       ****    0 ROOT    
