@<TRIPOS>MOLECULE
3R135
127   129    1
SMALL
USER_CHARGES


@<TRIPOS>ATOM
      1 CA        -82.0438   29.1242  -78.8341 C.3       0 UNK        -0.1998 
      2 C         -80.8468   28.3742  -78.2699 C.2       0 UNK         0.4909 
      3 O         -80.3603   27.4340  -78.8986 O.2       0 UNK        -0.5240 
      4 N         -80.3674   28.7818  -77.0875 N.am      1 UNK        -0.4739 
      5 CA        -79.2387   28.1572  -76.3862 C.3       1 UNK         0.0864 
      6 C6        -78.5968   29.1251  -75.3634 C.3       11 UNK        -0.0881 
      7 S7        -79.7204   29.6775  -74.0332 S.3       11 UNK        -0.2682 
      8 C8        -78.5315   30.2924  -72.7880 C.3       11 UNK         0.0289 
      9 C9        -77.7930   29.2353  -71.9594 C.ar      11 UNK        -0.0687 
     10 C10       -77.8583   27.8601  -72.2290 C.ar      11 UNK        -0.0823 
     11 C11       -77.1756   26.9399  -71.4288 C.ar      11 UNK        -0.0830 
     12 C12       -76.4356   27.3960  -70.3363 C.ar      11 UNK        -0.1021 
     13 C13       -76.3649   28.7599  -70.0462 C.ar      11 UNK        -0.0753 
     14 C14       -77.0337   29.6725  -70.8673 C.ar      11 UNK        -0.0933 
     15 C15       -75.6063   29.2290  -68.8140 C.3       11 UNK         0.0166 
     16 S16       -73.8108   29.2891  -69.0966 S.3       11 UNK        -0.2615 
     17 C17       -73.5938   30.9387  -69.8546 C.3       11 UNK        -0.0865 
     18 CA        -72.8804   30.9145  -71.2308 C.3       10 UNK         0.0862 
     19 C         -71.3905   30.4648  -71.1247 C.2       10 UNK         0.5551 
     20 N         -70.9551   29.4057  -71.7978 N.am      10 UNK        -0.7319 
     21 O         -70.6092   31.1045  -70.4244 O.2       10 UNK        -0.5018 
     22 N         -73.6810   30.2120  -72.2446 N.am      10 UNK        -0.4509 
     23 C         -73.5390   30.3877  -73.5625 C.2       10 UNK         0.4899 
     24 O         -72.7767   31.2119  -74.0723 O.2       10 UNK        -0.4839 
     25 CA        -74.3876   29.4849  -74.4728 C.3       9 UNK         0.0222 
     26 CB        -75.2971   30.3482  -75.3614 C.3       9 UNK        -0.1966 
     27 N         -73.5617   28.6416  -75.3399 N.am      9 UNK        -0.4218 
     28 C         -72.5681   27.8259  -74.9575 C.2       9 UNK         0.5020 
     29 O         -72.2616   27.6368  -73.7786 O.2       9 UNK        -0.5274 
     30 CA        -71.7908   27.0846  -76.0652 C.3       8 UNK         0.0270 
     31 CB        -71.3744   25.6705  -75.6185 C.3       8 UNK        -0.1976 
     32 N         -72.5335   26.9934  -77.3286 N.am      8 UNK        -0.4313 
     33 C         -72.5195   27.9197  -78.2989 C.2       8 UNK         0.5041 
     34 O         -71.8675   28.9614  -78.2269 O.2       8 UNK        -0.5577 
     35 CA        -73.3810   27.6714  -79.5527 C.3       7 UNK         0.0284 
     36 CB        -72.5039   27.1797  -80.7157 C.3       7 UNK        -0.1958 
     37 N         -74.4762   26.7211  -79.3455 N.am      7 UNK        -0.4454 
     38 C         -75.5626   26.9485  -78.5953 C.2       7 UNK         0.5089 
     39 O         -75.7825   28.0119  -78.0159 O.2       7 UNK        -0.5125 
     40 CA        -76.5524   25.7802  -78.4171 C.3       6 UNK         0.0408 
     41 CB        -76.4091   24.6608  -79.4726 C.3       6 UNK        -0.1791 
     42 N         -76.4724   25.2178  -77.0652 N.am      6 UNK        -0.4762 
     43 C         -75.3774   24.7422  -76.4531 C.2       6 UNK         0.5007 
     44 O         -74.2603   24.7070  -76.9715 O.2       6 UNK        -0.5032 
     45 CA        -75.5660   24.1976  -75.0256 C.3       5 UNK         0.0783 
     46 C46       -75.6115   25.3601  -74.0034 C.3       11 UNK        -0.0857 
     47 S47       -75.6734   24.7671  -72.2824 S.3       11 UNK        -0.2512 
     48 C48       -77.2650   25.4484  -71.7173 C.3       11 UNK         0.0225 
     49 N         -76.7121   23.2809  -74.9240 N.am      5 UNK        -0.4615 
     50 C         -76.7987   22.1024  -75.5565 C.2       4 UNK         0.5053 
     51 O         -75.9325   21.6912  -76.3294 O.2       4 UNK        -0.5105 
     52 CA        -78.0219   21.1948  -75.3052 C.3       4 UNK         0.0263 
     53 CB        -77.6301   20.0041  -74.4061 C.3       4 UNK        -0.1981 
     54 N         -79.2553   21.8290  -74.8115 N.am      4 UNK        -0.4224 
     55 C         -79.4695   22.4312  -73.6349 C.2       3 UNK         0.4895 
     56 O         -78.5902   22.6675  -72.8069 O.2       3 UNK        -0.5091 
     57 CA        -80.9237   22.7988  -73.3086 C.3       3 UNK         0.0250 
     58 CB        -81.5034   21.7983  -72.2955 C.3       3 UNK        -0.1996 
     59 N         -80.9778   24.1411  -72.7286 N.am      3 UNK        -0.4254 
     60 C         -81.1156   25.3080  -73.3727 C.2       2 UNK         0.5004 
     61 O         -81.0765   26.3777  -72.7655 O.2       2 UNK        -0.5226 
     62 CA        -81.3934   25.3215  -74.8926 C.3       2 UNK         0.0269 
     63 CB        -82.9032   25.2149  -75.1670 C.3       2 UNK        -0.1926 
     64 N         -80.8913   26.5425  -75.5201 N.am      2 UNK        -0.4687 
     65 C         -79.5968   26.7918  -75.7565 C.2       1 UNK         0.5165 
     66 O         -78.7012   25.9821  -75.5130 O.2       1 UNK        -0.5079 
     67 H67       -81.7938   29.5541  -79.8037 H         1 UNK         0.0900 
     68 H68       -82.3652   29.9327  -78.1776 H         1 UNK         0.0900 
     69 H69       -82.8833   28.4428  -78.9694 H         1 UNK         0.0900 
     70 H70       -80.8001   29.5590  -76.6072 H         1 UNK         0.2959 
     71 H71       -78.4727   27.9456  -77.1352 H         1 UNK         0.1079 
     72 H72       -77.7074   28.6676  -74.9279 H         1 UNK         0.0837 
     73 H73       -78.2455   30.0158  -75.8860 H         1 UNK         0.0837 
     74 H74       -79.0881   30.9336  -72.1029 H         1 UNK         0.0685 
     75 H75       -77.8031   30.9370  -73.2797 H         1 UNK         0.0685 
     76 H76       -78.4527   27.4867  -73.0494 H         1 UNK         0.1434 
     77 H77       -75.9193   26.6853  -69.7050 H         1 UNK         0.1329 
     78 H78       -76.9847   30.7287  -70.6398 H         1 UNK         0.1335 
     79 H79       -75.9674   30.2020  -68.4773 H         1 UNK         0.0680 
     80 H80       -75.8019   28.5391  -67.9917 H         1 UNK         0.0680 
     81 H81       -73.0381   31.5640  -69.1532 H         1 UNK         0.1032 
     82 H82       -74.5636   31.4258  -69.9628 H         1 UNK         0.1032 
     83 H83       -72.8282   31.9565  -71.5534 H         1 UNK         0.0461 
     84 H84       -69.9882   29.1364  -71.7162 H         1 UNK         0.3453 
     85 H85       -71.5776   28.8672  -72.3924 H         1 UNK         0.3453 
     86 H86       -74.2959   29.4891  -71.8974 H         1 UNK         0.2984 
     87 H87       -75.0105   28.8281  -73.8616 H         1 UNK         0.0554 
     88 H88       -75.8927   29.7359  -76.0352 H         1 UNK         0.0847 
     89 H89       -74.7209   31.0399  -75.9776 H         1 UNK         0.0847 
     90 H90       -75.9819   30.9456  -74.7603 H         1 UNK         0.0847 
     91 H91       -73.7260   28.7333  -76.3321 H         1 UNK         0.3141 
     92 H92       -70.8748   27.6540  -76.2360 H         1 UNK         0.0743 
     93 H93       -70.6919   25.7145  -74.7687 H         1 UNK         0.0784 
     94 H94       -72.2328   25.0732  -75.3111 H         1 UNK         0.0784 
     95 H95       -70.8595   25.1352  -76.4164 H         1 UNK         0.0784 
     96 H96       -73.1316   26.1758  -77.4329 H         1 UNK         0.3213 
     97 H97       -73.8196   28.6304  -79.8377 H         1 UNK         0.0855 
     98 H98       -71.6954   27.8836  -80.9191 H         1 UNK         0.0814 
     99 H99       -73.0813   27.0796  -81.6350 H         1 UNK         0.0814 
    100 H100      -72.0466   26.2138  -80.4971 H         1 UNK         0.0814 
    101 H101      -74.3640   25.8032  -79.7513 H         1 UNK         0.3105 
    102 H102      -77.5525   26.2023  -78.5234 H         1 UNK         0.0547 
    103 H103      -76.4813   25.0608  -80.4849 H         1 UNK         0.0837 
    104 H104      -75.4629   24.1251  -79.3901 H         1 UNK         0.0837 
    105 H105      -77.2065   23.9254  -79.3651 H         1 UNK         0.0837 
    106 H106      -77.3270   25.2756  -76.5136 H         1 UNK         0.3020 
    107 H107      -74.6744   23.6057  -74.8053 H         1 UNK         0.1245 
    108 H108      -76.4557   26.0219  -74.1988 H         1 UNK         0.0781 
    109 H109      -74.7194   25.9813  -74.0950 H         1 UNK         0.0781 
    110 H110      -77.5706   24.9248  -70.8105 H         1 UNK         0.0836 
    111 H111      -78.0356   25.2420  -72.4613 H         1 UNK         0.0836 
    112 H112      -77.4190   23.5037  -74.2331 H         1 UNK         0.3022 
    113 H113      -78.2860   20.7860  -76.2820 H         1 UNK         0.0747 
    114 H114      -78.4533   19.2974  -74.3008 H         1 UNK         0.0793 
    115 H115      -76.7866   19.4557  -74.8278 H         1 UNK         0.0793 
    116 H116      -77.3362   20.3289  -73.4074 H         1 UNK         0.0793 
    117 H117      -80.0497   21.7134  -75.4261 H         1 UNK         0.3047 
    118 H118      -81.5371   22.7351  -74.2077 H         1 UNK         0.0822 
    119 H119      -82.5394   22.0355  -72.0522 H         1 UNK         0.0807 
    120 H120      -80.9350   21.7873  -71.3642 H         1 UNK         0.0807 
    121 H121      -81.4897   20.7837  -72.6963 H         1 UNK         0.0807 
    122 H122      -80.7821   24.1796  -71.7392 H         1 UNK         0.2946 
    123 H123      -80.8813   24.4888  -75.3758 H         1 UNK         0.1144 
    124 H124      -83.1117   25.1926  -76.2369 H         1 UNK         0.0793 
    125 H125      -83.4500   26.0546  -74.7359 H         1 UNK         0.0793 
    126 H126      -83.3210   24.3036  -74.7378 H         1 UNK         0.0793 
    127 H127      -81.5603   27.2746  -75.7067 H         1 UNK         0.2896 
@<TRIPOS>BOND
     1    1    2 1    
     2    1   67 1    
     3    1   68 1    
     4    1   69 1    
     5    2    3 2    
     6    2    4 am   BACKBONE|DICT|INTERRES
     7    4    5 1    
     8    4   70 1    
     9    5    6 1    
    10    5   65 1    
    11    5   71 1    
    12    6    7 1    
    13    6   72 1    
    14    6   73 1    
    15    7    8 1    
    16    8    9 1    
    17    8   74 1    
    18    8   75 1    
    19    9   10 ar   
    20    9   14 ar   
    21   10   11 ar   
    22   10   76 1    
    23   11   12 ar   
    24   11   48 1    
    25   12   13 ar   
    26   12   77 1    
    27   13   14 ar   
    28   13   15 1    
    29   14   78 1    
    30   15   16 1    
    31   15   79 1    
    32   15   80 1    
    33   16   17 1    
    34   17   18 1    
    35   17   81 1    
    36   17   82 1    
    37   18   19 1    
    38   18   22 1    
    39   18   83 1    
    40   19   20 am   BACKBONE|DICT|INTERRES
    41   19   21 2    
    42   20   84 1    
    43   20   85 1    
    44   22   23 am   BACKBONE|DICT|INTERRES
    45   22   86 1    
    46   23   24 2    
    47   23   25 1    
    48   25   26 1    
    49   25   27 1    
    50   25   87 1    
    51   26   88 1    
    52   26   89 1    
    53   26   90 1    
    54   27   28 am   BACKBONE|DICT|INTERRES
    55   27   91 1    
    56   28   29 2    
    57   28   30 1    
    58   30   31 1    
    59   30   32 1    
    60   30   92 1    
    61   31   93 1    
    62   31   94 1    
    63   31   95 1    
    64   32   33 am   BACKBONE|DICT|INTERRES
    65   32   96 1    
    66   33   34 2    
    67   33   35 1    
    68   35   36 1    
    69   35   37 1    
    70   35   97 1    
    71   36   98 1    
    72   36   99 1    
    73   36  100 1    
    74   37   38 am   BACKBONE|DICT|INTERRES
    75   37  101 1    
    76   38   39 2    
    77   38   40 1    
    78   40   41 1    
    79   40   42 1    
    80   40  102 1    
    81   41  103 1    
    82   41  104 1    
    83   41  105 1    
    84   42   43 am   BACKBONE|DICT|INTERRES
    85   42  106 1    
    86   43   44 2    
    87   43   45 1    
    88   45   46 1    
    89   45   49 1    
    90   45  107 1    
    91   46   47 1    
    92   46  108 1    
    93   46  109 1    
    94   47   48 1    
    95   48  110 1    
    96   48  111 1    
    97   49   50 am   BACKBONE|DICT|INTERRES
    98   49  112 1    
    99   50   51 2    
   100   50   52 1    
   101   52   53 1    
   102   52   54 1    
   103   52  113 1    
   104   53  114 1    
   105   53  115 1    
   106   53  116 1    
   107   54   55 am   BACKBONE|DICT|INTERRES
   108   54  117 1    
   109   55   56 2    
   110   55   57 1    
   111   57   58 1    
   112   57   59 1    
   113   57  118 1    
   114   58  119 1    
   115   58  120 1    
   116   58  121 1    
   117   59   60 am   BACKBONE|DICT|INTERRES
   118   59  122 1    
   119   60   61 2    
   120   60   62 1    
   121   62   63 1    
   122   62   64 1    
   123   62  123 1    
   124   63  124 1    
   125   63  125 1    
   126   63  126 1    
   127   64   65 am   BACKBONE|DICT|INTERRES
   128   64  127 1    
   129   65   66 2    
@<TRIPOS>SUBSTRUCTURE
     1 UNK         1 GROUP             0       ****    0 ROOT    
