@<TRIPOS>MOLECULE
3R135
127   129    1
SMALL
USER_CHARGES


@<TRIPOS>ATOM
      1 CA        -83.6433   26.9467  -69.0433 C.3       0 UNK        -0.1998 
      2 C         -82.9382   26.3861  -70.2695 C.2       0 UNK         0.4909 
      3 O         -82.2833   25.3500  -70.1620 O.2       0 UNK        -0.5240 
      4 N         -83.0931   27.0650  -71.4170 N.am      1 UNK        -0.4739 
      5 CA        -82.5426   26.8316  -72.7668 C.3       1 UNK         0.0864 
      6 C6        -81.0531   27.2435  -72.9441 C.3       11 UNK        -0.0881 
      7 S7        -79.8168   26.2318  -72.0596 S.3       11 UNK        -0.2682 
      8 C8        -78.3276   26.4937  -73.0707 C.3       11 UNK         0.0289 
      9 C9        -77.8226   27.9259  -73.0138 C.ar      11 UNK        -0.0687 
     10 C10       -78.1141   28.8209  -74.0470 C.ar      11 UNK        -0.0823 
     11 C11       -77.5768   30.1117  -74.0389 C.ar      11 UNK        -0.0830 
     12 C12       -76.7691   30.5151  -72.9703 C.ar      11 UNK        -0.1021 
     13 C13       -76.4906   29.6344  -71.9212 C.ar      11 UNK        -0.0753 
     14 C14       -77.0194   28.3413  -71.9493 C.ar      11 UNK        -0.0933 
     15 C15       -75.6185   30.0668  -70.7540 C.3       11 UNK         0.0166 
     16 S16       -73.8815   29.5996  -71.0185 S.3       11 UNK        -0.2615 
     17 C17       -73.1948   31.1393  -71.7257 C.3       11 UNK        -0.0865 
     18 CA        -71.8114   30.9573  -72.4035 C.3       10 UNK         0.0862 
     19 C         -70.7089   30.5265  -71.3877 C.2       10 UNK         0.5551 
     20 N         -70.1815   29.3083  -71.4559 N.am      10 UNK        -0.7319 
     21 O         -70.3218   31.3191  -70.5324 O.2       10 UNK        -0.5018 
     22 N         -71.9097   30.1112  -73.6004 N.am      10 UNK        -0.4509 
     23 C         -70.9661   30.0117  -74.5461 C.2       10 UNK         0.4899 
     24 O         -69.9769   30.7447  -74.5952 O.2       10 UNK        -0.4839 
     25 CA        -71.1488   28.9181  -75.6189 C.3       9 UNK         0.0222 
     26 CB        -69.8066   28.2842  -76.0394 C.3       9 UNK        -0.1966 
     27 N         -72.1170   27.8691  -75.2736 N.am      9 UNK        -0.4218 
     28 C         -72.0888   27.0256  -74.2296 C.2       9 UNK         0.5020 
     29 O         -71.2432   27.0622  -73.3335 O.2       9 UNK        -0.5274 
     30 CA        -73.2038   25.9667  -74.1778 C.3       8 UNK         0.0270 
     31 CB        -74.5053   26.5725  -73.6318 C.3       8 UNK        -0.1976 
     32 N         -73.4632   25.3497  -75.4815 N.am      8 UNK        -0.4313 
     33 C         -72.5954   24.5634  -76.1359 C.2       8 UNK         0.5041 
     34 O         -71.4990   24.2247  -75.6887 O.2       8 UNK        -0.5577 
     35 CA        -73.0172   24.0784  -77.5305 C.3       7 UNK         0.0284 
     36 CB        -73.9607   22.8684  -77.4289 C.3       7 UNK        -0.1958 
     37 N         -73.6514   25.1509  -78.2998 N.am      7 UNK        -0.4454 
     38 C         -72.9742   26.1060  -78.9544 C.2       7 UNK         0.5089 
     39 O         -71.7465   26.1393  -79.0393 O.2       7 UNK        -0.5125 
     40 CA        -73.7993   27.2181  -79.6306 C.3       6 UNK         0.0408 
     41 CB        -74.0723   26.8620  -81.1005 C.3       6 UNK        -0.1791 
     42 N         -75.0702   27.5008  -78.9574 N.am      6 UNK        -0.4762 
     43 C         -75.1808   28.0264  -77.7279 C.2       6 UNK         0.5007 
     44 O         -74.2156   28.3513  -77.0389 O.2       6 UNK        -0.5032 
     45 CA        -76.6023   28.1253  -77.1368 C.3       5 UNK         0.0783 
     46 C46       -77.2916   29.4719  -77.4708 C.3       11 UNK        -0.0857 
     47 S47       -76.6319   30.8870  -76.5232 S.3       11 UNK        -0.2512 
     48 C48       -77.8572   31.0704  -75.1862 C.3       11 UNK         0.0225 
     49 N         -77.4423   26.9861  -77.5282 N.am      5 UNK        -0.4615 
     50 C         -77.1960   25.7131  -77.1970 C.2       4 UNK         0.5053 
     51 O         -76.2294   25.3576  -76.5177 O.2       4 UNK        -0.5105 
     52 CA        -78.1413   24.6559  -77.7859 C.3       4 UNK         0.0263 
     53 CB        -77.4868   23.9629  -78.9920 C.3       4 UNK        -0.1981 
     54 N         -78.4905   23.6555  -76.7781 N.am      4 UNK        -0.4224 
     55 C         -79.3714   23.8728  -75.7945 C.2       3 UNK         0.4895 
     56 O         -80.0401   24.9047  -75.6984 O.2       3 UNK        -0.5091 
     57 CA        -79.5048   22.7611  -74.7409 C.3       3 UNK         0.0250 
     58 CB        -78.2488   22.6872  -73.8549 C.3       3 UNK        -0.1996 
     59 N         -80.6662   23.0085  -73.8866 N.am      3 UNK        -0.4254 
     60 C         -81.8859   22.4909  -74.0775 C.2       2 UNK         0.5004 
     61 O         -82.1486   21.6455  -74.9345 O.2       2 UNK        -0.5226 
     62 CA        -83.0088   23.0018  -73.1566 C.3       2 UNK         0.0269 
     63 CB        -83.1812   22.0695  -71.9468 C.3       2 UNK        -0.1926 
     64 N         -82.7830   24.3689  -72.6791 N.am      2 UNK        -0.4687 
     65 C         -82.8798   25.4738  -73.4269 C.2       1 UNK         0.5165 
     66 O         -83.2494   25.4569  -74.6020 O.2       1 UNK        -0.5079 
     67 H67       -82.9168   27.1610  -68.2602 H         1 UNK         0.0900 
     68 H68       -84.3565   26.2197  -68.6562 H         1 UNK         0.0900 
     69 H69       -84.1832   27.8669  -69.2648 H         1 UNK         0.0900 
     70 H70       -83.6865   27.8822  -71.3753 H         1 UNK         0.2959 
     71 H71       -83.1011   27.5486  -73.3717 H         1 UNK         0.1079 
     72 H72       -80.8041   27.2367  -74.0072 H         1 UNK         0.0837 
     73 H73       -80.9224   28.2776  -72.6218 H         1 UNK         0.0837 
     74 H74       -78.5184   26.2036  -74.1025 H         1 UNK         0.0685 
     75 H75       -77.5456   25.8259  -72.7090 H         1 UNK         0.0685 
     76 H76       -78.7347   28.5017  -74.8729 H         1 UNK         0.1434 
     77 H77       -76.3529   31.5130  -72.9585 H         1 UNK         0.1329 
     78 H78       -76.7920   27.6505  -71.1489 H         1 UNK         0.1335 
     79 H79       -75.7012   31.1417  -70.5856 H         1 UNK         0.0680 
     80 H80       -75.9719   29.5903  -69.8383 H         1 UNK         0.0680 
     81 H81       -73.9026   31.5428  -72.4511 H         1 UNK         0.1032 
     82 H82       -73.1291   31.8855  -70.9316 H         1 UNK         0.1032 
     83 H83       -71.5093   31.9459  -72.7548 H         1 UNK         0.0461 
     84 H84       -70.5192   28.6396  -72.1390 H         1 UNK         0.3453 
     85 H85       -69.4673   29.0399  -70.7983 H         1 UNK         0.3453 
     86 H86       -72.6807   29.4606  -73.6183 H         1 UNK         0.2984 
     87 H87       -71.5618   29.4241  -76.4926 H         1 UNK         0.0554 
     88 H88       -69.9508   27.5347  -76.8182 H         1 UNK         0.0847 
     89 H89       -69.3077   27.8018  -75.1982 H         1 UNK         0.0847 
     90 H90       -69.1224   29.0344  -76.4376 H         1 UNK         0.0847 
     91 H91       -72.9078   27.8110  -75.9147 H         1 UNK         0.3141 
     92 H92       -72.8824   25.1783  -73.4939 H         1 UNK         0.0743 
     93 H93       -74.3548   26.9814  -72.6321 H         1 UNK         0.0784 
     94 H94       -74.8770   27.3813  -74.2619 H         1 UNK         0.0784 
     95 H95       -75.2889   25.8188  -73.5594 H         1 UNK         0.0784 
     96 H96       -74.3767   25.5132  -75.8961 H         1 UNK         0.3213 
     97 H97       -72.1168   23.7535  -78.0572 H         1 UNK         0.0855 
     98 H98       -74.8768   23.1055  -76.8877 H         1 UNK         0.0814 
     99 H99       -73.4776   22.0466  -76.8987 H         1 UNK         0.0814 
    100 H100      -74.2362   22.4965  -78.4156 H         1 UNK         0.0814 
    101 H101      -74.6566   25.2251  -78.2390 H         1 UNK         0.3105 
    102 H102      -73.1995   28.1306  -79.6075 H         1 UNK         0.0547 
    103 H103      -74.6875   25.9661  -81.1933 H         1 UNK         0.0837 
    104 H104      -74.5801   27.6752  -81.6193 H         1 UNK         0.0837 
    105 H105      -73.1402   26.6729  -81.6350 H         1 UNK         0.0837 
    106 H106      -75.9151   27.2576  -79.4541 H         1 UNK         0.3020 
    107 H107      -76.4789   28.0610  -76.0547 H         1 UNK         0.1245 
    108 H108      -78.3625   29.4031  -77.2753 H         1 UNK         0.0781 
    109 H109      -77.2073   29.6978  -78.5356 H         1 UNK         0.0781 
    110 H110      -77.8209   32.0984  -74.8222 H         1 UNK         0.0836 
    111 H111      -78.8681   30.9275  -75.5708 H         1 UNK         0.0836 
    112 H112      -78.2488   27.1957  -78.0990 H         1 UNK         0.3022 
    113 H113      -79.0570   25.1438  -78.1277 H         1 UNK         0.0747 
    114 H114      -77.2207   24.6858  -79.7644 H         1 UNK         0.0793 
    115 H115      -78.1652   23.2415  -79.4479 H         1 UNK         0.0793 
    116 H116      -76.5764   23.4327  -78.7133 H         1 UNK         0.0793 
    117 H117      -77.9470   22.8048  -76.7746 H         1 UNK         0.3047 
    118 H118      -79.6198   21.8088  -75.2633 H         1 UNK         0.0822 
    119 H119      -77.3498   22.5118  -74.4471 H         1 UNK         0.0807 
    120 H120      -78.3234   21.8711  -73.1359 H         1 UNK         0.0807 
    121 H121      -78.0941   23.6079  -73.2941 H         1 UNK         0.0807 
    122 H122      -80.5722   23.7508  -73.2070 H         1 UNK         0.2946 
    123 H123      -83.9351   22.9901  -73.7357 H         1 UNK         0.1144 
    124 H124      -83.3701   21.0438  -72.2669 H         1 UNK         0.0793 
    125 H125      -84.0245   22.3760  -71.3276 H         1 UNK         0.0793 
    126 H126      -82.2904   22.0576  -71.3174 H         1 UNK         0.0793 
    127 H127      -82.4977   24.4951  -71.7082 H         1 UNK         0.2896 
@<TRIPOS>BOND
     1    1    2 1    
     2    1   67 1    
     3    1   68 1    
     4    1   69 1    
     5    2    3 2    
     6    2    4 am   BACKBONE|DICT|INTERRES
     7    4    5 1    
     8    4   70 1    
     9    5    6 1    
    10    5   65 1    
    11    5   71 1    
    12    6    7 1    
    13    6   72 1    
    14    6   73 1    
    15    7    8 1    
    16    8    9 1    
    17    8   74 1    
    18    8   75 1    
    19    9   10 ar   
    20    9   14 ar   
    21   10   11 ar   
    22   10   76 1    
    23   11   12 ar   
    24   11   48 1    
    25   12   13 ar   
    26   12   77 1    
    27   13   14 ar   
    28   13   15 1    
    29   14   78 1    
    30   15   16 1    
    31   15   79 1    
    32   15   80 1    
    33   16   17 1    
    34   17   18 1    
    35   17   81 1    
    36   17   82 1    
    37   18   19 1    
    38   18   22 1    
    39   18   83 1    
    40   19   20 am   BACKBONE|DICT|INTERRES
    41   19   21 2    
    42   20   84 1    
    43   20   85 1    
    44   22   23 am   BACKBONE|DICT|INTERRES
    45   22   86 1    
    46   23   24 2    
    47   23   25 1    
    48   25   26 1    
    49   25   27 1    
    50   25   87 1    
    51   26   88 1    
    52   26   89 1    
    53   26   90 1    
    54   27   28 am   BACKBONE|DICT|INTERRES
    55   27   91 1    
    56   28   29 2    
    57   28   30 1    
    58   30   31 1    
    59   30   32 1    
    60   30   92 1    
    61   31   93 1    
    62   31   94 1    
    63   31   95 1    
    64   32   33 am   BACKBONE|DICT|INTERRES
    65   32   96 1    
    66   33   34 2    
    67   33   35 1    
    68   35   36 1    
    69   35   37 1    
    70   35   97 1    
    71   36   98 1    
    72   36   99 1    
    73   36  100 1    
    74   37   38 am   BACKBONE|DICT|INTERRES
    75   37  101 1    
    76   38   39 2    
    77   38   40 1    
    78   40   41 1    
    79   40   42 1    
    80   40  102 1    
    81   41  103 1    
    82   41  104 1    
    83   41  105 1    
    84   42   43 am   BACKBONE|DICT|INTERRES
    85   42  106 1    
    86   43   44 2    
    87   43   45 1    
    88   45   46 1    
    89   45   49 1    
    90   45  107 1    
    91   46   47 1    
    92   46  108 1    
    93   46  109 1    
    94   47   48 1    
    95   48  110 1    
    96   48  111 1    
    97   49   50 am   BACKBONE|DICT|INTERRES
    98   49  112 1    
    99   50   51 2    
   100   50   52 1    
   101   52   53 1    
   102   52   54 1    
   103   52  113 1    
   104   53  114 1    
   105   53  115 1    
   106   53  116 1    
   107   54   55 am   BACKBONE|DICT|INTERRES
   108   54  117 1    
   109   55   56 2    
   110   55   57 1    
   111   57   58 1    
   112   57   59 1    
   113   57  118 1    
   114   58  119 1    
   115   58  120 1    
   116   58  121 1    
   117   59   60 am   BACKBONE|DICT|INTERRES
   118   59  122 1    
   119   60   61 2    
   120   60   62 1    
   121   62   63 1    
   122   62   64 1    
   123   62  123 1    
   124   63  124 1    
   125   63  125 1    
   126   63  126 1    
   127   64   65 am   BACKBONE|DICT|INTERRES
   128   64  127 1    
   129   65   66 2    
@<TRIPOS>SUBSTRUCTURE
     1 UNK         1 GROUP             0       ****    0 ROOT    
