@<TRIPOS>MOLECULE
3R135
127   129    1
SMALL
USER_CHARGES


@<TRIPOS>ATOM
      1 CA        -85.7850   25.5927  -70.9398 C.3       0 UNK        -0.1998 
      2 C         -85.1889   26.2835  -72.1571 C.2       0 UNK         0.4909 
      3 O         -85.7646   26.2121  -73.2431 O.2       0 UNK        -0.5240 
      4 N         -84.0433   26.9564  -71.9815 N.am      1 UNK        -0.4739 
      5 CA        -83.3023   27.6507  -73.0421 C.3       1 UNK         0.0864 
      6 C6        -82.2305   28.5906  -72.4336 C.3       11 UNK        -0.0881 
      7 S7        -81.5447   29.8157  -73.6019 S.3       11 UNK        -0.2682 
      8 C8        -80.0499   28.9893  -74.2426 C.3       11 UNK         0.0289 
      9 C9        -78.8994   28.9664  -73.2438 C.ar      11 UNK        -0.0687 
     10 C10       -78.7783   27.9205  -72.3238 C.ar      11 UNK        -0.0823 
     11 C11       -77.7256   27.8954  -71.4045 C.ar      11 UNK        -0.0830 
     12 C12       -76.7651   28.9090  -71.4371 C.ar      11 UNK        -0.1021 
     13 C13       -76.8414   29.9323  -72.3883 C.ar      11 UNK        -0.0753 
     14 C14       -77.9235   29.9670  -73.2736 C.ar      11 UNK        -0.0933 
     15 C15       -75.7449   30.9851  -72.4765 C.3       11 UNK         0.0166 
     16 S16       -74.1262   30.2106  -72.7831 S.3       11 UNK        -0.2615 
     17 C17       -73.1079   31.6117  -73.3598 C.3       11 UNK        -0.0865 
     18 CA        -72.2572   31.2308  -74.6010 C.3       10 UNK         0.0862 
     19 C         -71.4340   32.4535  -75.0900 C.2       10 UNK         0.5551 
     20 N         -71.9588   33.2146  -76.0403 N.am      10 UNK        -0.7319 
     21 O         -70.3522   32.7429  -74.5814 O.2       10 UNK        -0.5018 
     22 N         -71.4298   30.0491  -74.3192 N.am      10 UNK        -0.4509 
     23 C         -70.6443   29.3963  -75.1824 C.2       10 UNK         0.4899 
     24 O         -70.4961   29.7064  -76.3648 O.2       10 UNK        -0.4839 
     25 CA        -69.9138   28.1647  -74.6335 C.3       9 UNK         0.0222 
     26 CB        -69.6419   28.2259  -73.1118 C.3       9 UNK        -0.1966 
     27 N         -70.6925   26.9760  -74.9733 N.am      9 UNK        -0.4218 
     28 C         -70.2149   25.7245  -74.9915 C.2       9 UNK         0.5020 
     29 O         -69.0481   25.4360  -74.7190 O.2       9 UNK        -0.5274 
     30 CA        -71.1859   24.5887  -75.3652 C.3       8 UNK         0.0270 
     31 CB        -71.6971   23.8815  -74.0993 C.3       8 UNK        -0.1976 
     32 N         -72.3267   25.0207  -76.1764 N.am      8 UNK        -0.4313 
     33 C         -72.2417   25.4216  -77.4525 C.2       8 UNK         0.5041 
     34 O         -71.1865   25.4535  -78.0873 O.2       8 UNK        -0.5577 
     35 CA        -73.5425   25.8559  -78.1513 C.3       7 UNK         0.0284 
     36 CB        -74.0916   24.7067  -79.0118 C.3       7 UNK        -0.1958 
     37 N         -74.5936   26.3199  -77.2412 N.am      7 UNK        -0.4454 
     38 C         -74.5212   27.4169  -76.4739 C.2       7 UNK         0.5089 
     39 O         -73.5384   28.1548  -76.4251 O.2       7 UNK        -0.5125 
     40 CA        -75.7444   27.7177  -75.5909 C.3       6 UNK         0.0408 
     41 CB        -76.8755   28.3244  -76.4348 C.3       6 UNK        -0.1791 
     42 N         -76.2282   26.5314  -74.8772 N.am      6 UNK        -0.4762 
     43 C         -75.5076   25.8554  -73.9677 C.2       6 UNK         0.5007 
     44 O         -74.3748   26.1835  -73.6137 O.2       6 UNK        -0.5032 
     45 CA        -76.1130   24.5425  -73.4277 C.3       5 UNK         0.0783 
     46 C46       -77.1064   24.7466  -72.2585 C.3       11 UNK        -0.0857 
     47 S47       -76.3734   25.5336  -70.7847 S.3       11 UNK        -0.2512 
     48 C48       -77.6323   26.7836  -70.3672 C.3       11 UNK         0.0225 
     49 N         -76.7355   23.7819  -74.5123 N.am      5 UNK        -0.4615 
     50 C         -76.0601   23.1388  -75.4744 C.2       4 UNK         0.5053 
     51 O         -74.8328   23.0679  -75.5176 O.2       4 UNK        -0.5105 
     52 CA        -76.8934   22.4871  -76.5923 C.3       4 UNK         0.0263 
     53 CB        -77.2650   21.0447  -76.2141 C.3       4 UNK        -0.1981 
     54 N         -78.1115   23.2371  -76.9121 N.am      4 UNK        -0.4224 
     55 C         -78.1254   24.4723  -77.4339 C.2       3 UNK         0.4895 
     56 O         -77.1097   25.0873  -77.7535 O.2       3 UNK        -0.5091 
     57 CA        -79.4941   25.1573  -77.5856 C.3       3 UNK         0.0250 
     58 CB        -80.0719   24.8980  -78.9856 C.3       3 UNK        -0.1996 
     59 N         -80.4748   24.7616  -76.5680 N.am      3 UNK        -0.4254 
     60 C         -80.3388   24.9825  -75.2532 C.2       2 UNK         0.5004 
     61 O         -79.3424   25.5027  -74.7465 O.2       2 UNK        -0.5226 
     62 CA        -81.4840   24.4978  -74.3470 C.3       2 UNK         0.0269 
     63 CB        -80.9815   23.3989  -73.3954 C.3       2 UNK        -0.1926 
     64 N         -82.0796   25.5796  -73.5572 N.am      2 UNK        -0.4687 
     65 C         -82.7089   26.6527  -74.0623 C.2       1 UNK         0.5165 
     66 O         -82.8629   26.8500  -75.2687 O.2       1 UNK        -0.5079 
     67 H67       -85.1797   25.7445  -70.0464 H         1 UNK         0.0900 
     68 H68       -85.8631   24.5206  -71.1181 H         1 UNK         0.0900 
     69 H69       -86.7845   25.9790  -70.7413 H         1 UNK         0.0900 
     70 H70       -83.6288   26.9861  -71.0605 H         1 UNK         0.2959 
     71 H71       -84.0218   28.2698  -73.5835 H         1 UNK         0.1079 
     72 H72       -82.6877   29.1741  -71.6327 H         1 UNK         0.0837 
     73 H73       -81.4399   28.0251  -71.9473 H         1 UNK         0.0837 
     74 H74       -80.2846   27.9775  -74.5670 H         1 UNK         0.0685 
     75 H75       -79.7429   29.5211  -75.1439 H         1 UNK         0.0685 
     76 H76       -79.5013   27.1178  -72.3278 H         1 UNK         0.1434 
     77 H77       -75.9363   28.8834  -70.7426 H         1 UNK         0.1329 
     78 H78       -77.9960   30.7609  -74.0043 H         1 UNK         0.1335 
     79 H79       -75.9641   31.6947  -73.2757 H         1 UNK         0.0680 
     80 H80       -75.7065   31.5551  -71.5474 H         1 UNK         0.0680 
     81 H81       -72.4675   31.9340  -72.5363 H         1 UNK         0.1032 
     82 H82       -73.7534   32.4607  -73.5917 H         1 UNK         0.1032 
     83 H83       -72.9402   30.9432  -75.4033 H         1 UNK         0.0461 
     84 H84       -72.8490   32.9894  -76.4566 H         1 UNK         0.3453 
     85 H85       -71.4477   34.0230  -76.3592 H         1 UNK         0.3453 
     86 H86       -71.4918   29.7005  -73.3748 H         1 UNK         0.2984 
     87 H87       -68.9532   28.1142  -75.1507 H         1 UNK         0.0554 
     88 H88       -68.9670   27.4285  -72.8006 H         1 UNK         0.0847 
     89 H89       -70.5559   28.1251  -72.5252 H         1 UNK         0.0847 
     90 H90       -69.1657   29.1672  -72.8333 H         1 UNK         0.0847 
     91 H91       -71.6510   27.1409  -75.2600 H         1 UNK         0.3141 
     92 H92       -70.6205   23.8606  -75.9508 H         1 UNK         0.0743 
     93 H93       -72.2702   24.5559  -73.4627 H         1 UNK         0.0784 
     94 H94       -72.3322   23.0309  -74.3471 H         1 UNK         0.0784 
     95 H95       -70.8665   23.5008  -73.5034 H         1 UNK         0.0784 
     96 H96       -73.2389   24.9910  -75.7394 H         1 UNK         0.3213 
     97 H97       -73.2907   26.6880  -78.8121 H         1 UNK         0.0855 
     98 H98       -74.3841   23.8528  -78.3997 H         1 UNK         0.0814 
     99 H99       -73.3427   24.3575  -79.7241 H         1 UNK         0.0814 
    100 H100      -74.9627   25.0214  -79.5867 H         1 UNK         0.0814 
    101 H101      -75.4710   25.8027  -77.2605 H         1 UNK         0.3105 
    102 H102      -75.4499   28.4529  -74.8400 H         1 UNK         0.0547 
    103 H103      -76.5693   29.2812  -76.8593 H         1 UNK         0.0837 
    104 H104      -77.1626   27.6790  -77.2645 H         1 UNK         0.0837 
    105 H105      -77.7633   28.5041  -75.8353 H         1 UNK         0.0837 
    106 H106      -77.1586   26.1999  -75.1009 H         1 UNK         0.3020 
    107 H107      -75.2789   23.9476  -73.0471 H         1 UNK         0.1245 
    108 H108      -77.5012   23.7796  -71.9429 H         1 UNK         0.0781 
    109 H109      -77.9695   25.3177  -72.5934 H         1 UNK         0.0781 
    110 H110      -77.3844   27.2185  -69.3978 H         1 UNK         0.0836 
    111 H111      -78.5983   26.2928  -70.2380 H         1 UNK         0.0836 
    112 H112      -77.7409   23.8544  -74.5863 H         1 UNK         0.3022 
    113 H113      -76.2734   22.4564  -77.4907 H         1 UNK         0.0747 
    114 H114      -77.7853   20.5418  -77.0295 H         1 UNK         0.0793 
    115 H115      -76.3720   20.4584  -75.9921 H         1 UNK         0.0793 
    116 H116      -77.9059   21.0087  -75.3322 H         1 UNK         0.0793 
    117 H117      -78.9937   22.7996  -76.6904 H         1 UNK         0.3047 
    118 H118      -79.3293   26.2316  -77.4788 H         1 UNK         0.0822 
    119 H119      -80.9927   25.4594  -79.1453 H         1 UNK         0.0807 
    120 H120      -80.2894   23.8411  -79.1453 H         1 UNK         0.0807 
    121 H121      -79.3688   25.2068  -79.7607 H         1 UNK         0.0807 
    122 H122      -81.3250   24.3337  -76.9061 H         1 UNK         0.2946 
    123 H123      -82.2737   24.0740  -74.9714 H         1 UNK         0.1144 
    124 H124      -81.7955   22.9889  -72.7972 H         1 UNK         0.0793 
    125 H125      -80.2189   23.7739  -72.7114 H         1 UNK         0.0793 
    126 H126      -80.5415   22.5696  -73.9509 H         1 UNK         0.0793 
    127 H127      -82.0125   25.4940  -72.5541 H         1 UNK         0.2896 
@<TRIPOS>BOND
     1    1    2 1    
     2    1   67 1    
     3    1   68 1    
     4    1   69 1    
     5    2    3 2    
     6    2    4 am   BACKBONE|DICT|INTERRES
     7    4    5 1    
     8    4   70 1    
     9    5    6 1    
    10    5   65 1    
    11    5   71 1    
    12    6    7 1    
    13    6   72 1    
    14    6   73 1    
    15    7    8 1    
    16    8    9 1    
    17    8   74 1    
    18    8   75 1    
    19    9   10 ar   
    20    9   14 ar   
    21   10   11 ar   
    22   10   76 1    
    23   11   12 ar   
    24   11   48 1    
    25   12   13 ar   
    26   12   77 1    
    27   13   14 ar   
    28   13   15 1    
    29   14   78 1    
    30   15   16 1    
    31   15   79 1    
    32   15   80 1    
    33   16   17 1    
    34   17   18 1    
    35   17   81 1    
    36   17   82 1    
    37   18   19 1    
    38   18   22 1    
    39   18   83 1    
    40   19   20 am   BACKBONE|DICT|INTERRES
    41   19   21 2    
    42   20   84 1    
    43   20   85 1    
    44   22   23 am   BACKBONE|DICT|INTERRES
    45   22   86 1    
    46   23   24 2    
    47   23   25 1    
    48   25   26 1    
    49   25   27 1    
    50   25   87 1    
    51   26   88 1    
    52   26   89 1    
    53   26   90 1    
    54   27   28 am   BACKBONE|DICT|INTERRES
    55   27   91 1    
    56   28   29 2    
    57   28   30 1    
    58   30   31 1    
    59   30   32 1    
    60   30   92 1    
    61   31   93 1    
    62   31   94 1    
    63   31   95 1    
    64   32   33 am   BACKBONE|DICT|INTERRES
    65   32   96 1    
    66   33   34 2    
    67   33   35 1    
    68   35   36 1    
    69   35   37 1    
    70   35   97 1    
    71   36   98 1    
    72   36   99 1    
    73   36  100 1    
    74   37   38 am   BACKBONE|DICT|INTERRES
    75   37  101 1    
    76   38   39 2    
    77   38   40 1    
    78   40   41 1    
    79   40   42 1    
    80   40  102 1    
    81   41  103 1    
    82   41  104 1    
    83   41  105 1    
    84   42   43 am   BACKBONE|DICT|INTERRES
    85   42  106 1    
    86   43   44 2    
    87   43   45 1    
    88   45   46 1    
    89   45   49 1    
    90   45  107 1    
    91   46   47 1    
    92   46  108 1    
    93   46  109 1    
    94   47   48 1    
    95   48  110 1    
    96   48  111 1    
    97   49   50 am   BACKBONE|DICT|INTERRES
    98   49  112 1    
    99   50   51 2    
   100   50   52 1    
   101   52   53 1    
   102   52   54 1    
   103   52  113 1    
   104   53  114 1    
   105   53  115 1    
   106   53  116 1    
   107   54   55 am   BACKBONE|DICT|INTERRES
   108   54  117 1    
   109   55   56 2    
   110   55   57 1    
   111   57   58 1    
   112   57   59 1    
   113   57  118 1    
   114   58  119 1    
   115   58  120 1    
   116   58  121 1    
   117   59   60 am   BACKBONE|DICT|INTERRES
   118   59  122 1    
   119   60   61 2    
   120   60   62 1    
   121   62   63 1    
   122   62   64 1    
   123   62  123 1    
   124   63  124 1    
   125   63  125 1    
   126   63  126 1    
   127   64   65 am   BACKBONE|DICT|INTERRES
   128   64  127 1    
   129   65   66 2    
@<TRIPOS>SUBSTRUCTURE
     1 UNK         1 GROUP             0       ****    0 ROOT    
