@<TRIPOS>MOLECULE
3R135
127   129    1
SMALL
USER_CHARGES


@<TRIPOS>ATOM
      1 CA        -77.4199   26.2029  -71.4077 C.3       0 UNK        -0.1998 
      2 C         -78.8656   26.2962  -71.8678 C.2       0 UNK         0.4909 
      3 O         -79.1270   26.7321  -72.9850 O.2       0 UNK        -0.5240 
      4 N         -79.8026   25.8659  -71.0141 N.am      1 UNK        -0.4739 
      5 CA        -81.2650   26.0377  -71.1088 C.3       1 UNK         0.0864 
      6 C6        -81.7090   27.5254  -71.0861 C.3       11 UNK        -0.0881 
      7 S7        -81.0787   28.4037  -69.6101 S.3       11 UNK        -0.2682 
      8 C8        -80.7039   30.0656  -70.2560 C.3       11 UNK         0.0289 
      9 C9        -79.6003   30.0608  -71.3060 C.ar      11 UNK        -0.0687 
     10 C10       -79.9136   30.2941  -72.6477 C.ar      11 UNK        -0.0823 
     11 C11       -78.9163   30.3153  -73.6266 C.ar      11 UNK        -0.0830 
     12 C12       -77.5854   30.1023  -73.2432 C.ar      11 UNK        -0.1021 
     13 C13       -77.2559   29.8683  -71.9037 C.ar      11 UNK        -0.0753 
     14 C14       -78.2676   29.8528  -70.9380 C.ar      11 UNK        -0.0933 
     15 C15       -75.8044   29.6426  -71.5063 C.3       11 UNK         0.0166 
     16 S16       -74.8917   31.2140  -71.5030 S.3       11 UNK        -0.2615 
     17 C17       -73.2107   30.6888  -71.0270 C.3       11 UNK        -0.0865 
     18 CA        -72.3247   30.3864  -72.2738 C.3       10 UNK         0.0862 
     19 C         -70.8074   30.7099  -72.0812 C.2       10 UNK         0.5551 
     20 N         -69.9028   30.0661  -72.8122 N.am      10 UNK        -0.7319 
     21 O         -70.4410   31.5765  -71.2909 O.2       10 UNK        -0.5018 
     22 N         -72.5831   29.0499  -72.8388 N.am      10 UNK        -0.4509 
     23 C         -72.2267   27.8795  -72.2861 C.2       10 UNK         0.4899 
     24 O         -71.7883   27.7686  -71.1407 O.2       10 UNK        -0.4839 
     25 CA        -72.3411   26.6119  -73.1579 C.3       9 UNK         0.0222 
     26 CB        -73.4616   25.7028  -72.6336 C.3       9 UNK        -0.1966 
     27 N         -72.5377   26.8609  -74.5941 N.am      9 UNK        -0.4218 
     28 C         -71.6566   27.4861  -75.3924 C.2       9 UNK         0.5020 
     29 O         -70.5680   27.9107  -74.9963 O.2       9 UNK        -0.5274 
     30 CA        -72.0912   27.7348  -76.8487 C.3       8 UNK         0.0270 
     31 CB        -70.9389   28.2171  -77.7568 C.3       8 UNK        -0.1976 
     32 N         -72.8029   26.6016  -77.4470 N.am      8 UNK        -0.4313 
     33 C         -72.3186   25.3831  -77.7353 C.2       8 UNK         0.5041 
     34 O         -71.1581   25.0374  -77.5090 O.2       8 UNK        -0.5577 
     35 CA        -73.2782   24.3615  -78.3848 C.3       7 UNK         0.0284 
     36 CB        -73.4472   23.1315  -77.4780 C.3       7 UNK        -0.1958 
     37 N         -74.6003   24.9113  -78.7035 N.am      7 UNK        -0.4454 
     38 C         -74.8654   25.7323  -79.7295 C.2       7 UNK         0.5089 
     39 O         -74.0416   26.0408  -80.5904 O.2       7 UNK        -0.5125 
     40 CA        -76.2706   26.3603  -79.7694 C.3       6 UNK         0.0408 
     41 CB        -77.2216   25.5221  -80.6382 C.3       6 UNK        -0.1791 
     42 N         -76.8513   26.5496  -78.4347 N.am      6 UNK        -0.4762 
     43 C         -76.3854   27.4103  -77.5154 C.2       6 UNK         0.5007 
     44 O         -75.4088   28.1370  -77.6999 O.2       6 UNK        -0.5032 
     45 CA        -77.0839   27.4055  -76.1383 C.3       5 UNK         0.0783 
     46 C46       -78.4348   28.1604  -76.1836 C.3       11 UNK        -0.0857 
     47 S47       -78.2091   29.9633  -76.3595 S.3       11 UNK        -0.2512 
     48 C48       -79.3220   30.6177  -75.0700 C.3       11 UNK         0.0225 
     49 N         -77.2342   26.0394  -75.6274 N.am      5 UNK        -0.4615 
     50 C         -76.2058   25.2273  -75.3354 C.2       4 UNK         0.5053 
     51 O         -75.0309   25.5943  -75.3640 O.2       4 UNK        -0.5105 
     52 CA        -76.5164   23.7482  -75.0196 C.3       4 UNK         0.0263 
     53 CB        -76.5958   23.5002  -73.5071 C.3       4 UNK        -0.1981 
     54 N         -77.7459   23.2580  -75.6403 N.am      4 UNK        -0.4224 
     55 C         -78.0103   23.2536  -76.9535 C.2       3 UNK         0.4895 
     56 O         -77.1742   23.5282  -77.8139 O.2       3 UNK        -0.5091 
     57 CA        -79.4625   22.9533  -77.3757 C.3       3 UNK         0.0250 
     58 CB        -79.5606   21.5486  -77.9913 C.3       3 UNK        -0.1996 
     59 N         -80.4532   23.0786  -76.2946 N.am      3 UNK        -0.4254 
     60 C         -80.7116   24.1887  -75.5841 C.2       2 UNK         0.5004 
     61 O         -80.1370   25.2617  -75.7794 O.2       2 UNK        -0.5226 
     62 CA        -81.7296   24.0729  -74.4359 C.3       2 UNK         0.0269 
     63 CB        -82.0158   22.6142  -74.0020 C.3       2 UNK        -0.1926 
     64 N         -81.2473   24.8611  -73.3002 N.am      2 UNK        -0.4687 
     65 C         -81.9698   25.2581  -72.2468 C.2       1 UNK         0.5165 
     66 O         -83.1701   25.0051  -72.1280 O.2       1 UNK        -0.5079 
     67 H67       -76.7460   26.3625  -72.2482 H         1 UNK         0.0900 
     68 H68       -77.2150   26.9682  -70.6602 H         1 UNK         0.0900 
     69 H69       -77.2047   25.2277  -70.9720 H         1 UNK         0.0900 
     70 H70       -79.4949   25.4728  -70.1355 H         1 UNK         0.2959 
     71 H71       -81.6502   25.5833  -70.1942 H         1 UNK         0.1079 
     72 H72       -81.3784   28.0269  -71.9957 H         1 UNK         0.0837 
     73 H73       -82.7978   27.6034  -71.0762 H         1 UNK         0.0837 
     74 H74       -81.6193   30.5045  -70.6560 H         1 UNK         0.0685 
     75 H75       -80.4009   30.7033  -69.4245 H         1 UNK         0.0685 
     76 H76       -80.9428   30.4672  -72.9313 H         1 UNK         0.1434 
     77 H77       -76.7948   30.1330  -73.9791 H         1 UNK         0.1329 
     78 H78       -78.0216   29.6786  -69.8995 H         1 UNK         0.1335 
     79 H79       -75.3400   28.9468  -72.2061 H         1 UNK         0.0680 
     80 H80       -75.7403   29.1831  -70.5188 H         1 UNK         0.0680 
     81 H81       -72.8011   31.5109  -70.4383 H         1 UNK         0.1032 
     82 H82       -73.2545   29.8393  -70.3446 H         1 UNK         0.1032 
     83 H83       -72.6188   31.0856  -73.0575 H         1 UNK         0.0461 
     84 H84       -68.9270   30.2871  -72.6940 H         1 UNK         0.3453 
     85 H85       -70.1823   29.3592  -73.4823 H         1 UNK         0.3453 
     86 H86       -72.9305   29.0372  -73.7854 H         1 UNK         0.2984 
     87 H87       -71.3976   26.0727  -73.0522 H         1 UNK         0.0554 
     88 H88       -73.3206   25.4692  -71.5774 H         1 UNK         0.0847 
     89 H89       -73.4829   24.7559  -73.1730 H         1 UNK         0.0847 
     90 H90       -74.4376   26.1760  -72.7361 H         1 UNK         0.0847 
     91 H91       -73.4057   26.5101  -74.9955 H         1 UNK         0.3141 
     92 H92       -72.8190   28.5460  -76.8013 H         1 UNK         0.0743 
     93 H93       -70.5134   29.1501  -77.3852 H         1 UNK         0.0784 
     94 H94       -70.1282   27.4896  -77.8061 H         1 UNK         0.0784 
     95 H95       -71.2864   28.4031  -78.7731 H         1 UNK         0.0784 
     96 H96       -73.7807   26.7789  -77.6486 H         1 UNK         0.3213 
     97 H97       -72.8173   24.0321  -79.3185 H         1 UNK         0.0855 
     98 H98       -73.7183   23.4193  -76.4633 H         1 UNK         0.0814 
     99 H99       -72.5132   22.5724  -77.4101 H         1 UNK         0.0814 
    100 H100      -74.2083   22.4487  -77.8566 H         1 UNK         0.0814 
    101 H101      -75.3669   24.6605  -78.0889 H         1 UNK         0.3105 
    102 H102      -76.1754   27.3456  -80.2308 H         1 UNK         0.0547 
    103 H103      -78.2044   25.9871  -80.7154 H         1 UNK         0.0837 
    104 H104      -76.8320   25.4214  -81.6521 H         1 UNK         0.0837 
    105 H105      -77.3557   24.5150  -80.2432 H         1 UNK         0.0837 
    106 H106      -77.6117   25.9347  -78.1802 H         1 UNK         0.3020 
    107 H107      -76.4281   27.9280  -75.4380 H         1 UNK         0.1245 
    108 H108      -78.9916   27.9696  -75.2657 H         1 UNK         0.0781 
    109 H109      -79.0707   27.7955  -76.9924 H         1 UNK         0.0781 
    110 H110      -80.3252   30.2342  -75.2638 H         1 UNK         0.0836 
    111 H111      -79.3799   31.7005  -75.1866 H         1 UNK         0.0836 
    112 H112      -78.1859   25.6891  -75.5649 H         1 UNK         0.3022 
    113 H113      -75.6941   23.1519  -75.4145 H         1 UNK         0.0747 
    114 H114      -76.6015   22.4330  -73.2847 H         1 UNK         0.0793 
    115 H115      -75.7421   23.9309  -72.9849 H         1 UNK         0.0793 
    116 H116      -77.5001   23.9307  -73.0796 H         1 UNK         0.0793 
    117 H117      -78.4951   23.0029  -75.0150 H         1 UNK         0.3047 
    118 H118      -79.7243   23.6835  -78.1442 H         1 UNK         0.0822 
    119 H119      -78.8575   21.4342  -78.8179 H         1 UNK         0.0807 
    120 H120      -80.5572   21.3573  -78.3896 H         1 UNK         0.0807 
    121 H121      -79.3337   20.7706  -77.2611 H         1 UNK         0.0807 
    122 H122      -80.9645   22.2395  -76.0606 H         1 UNK         0.2946 
    123 H123      -82.6578   24.5222  -74.7956 H         1 UNK         0.1144 
    124 H124      -82.7369   22.5726  -73.1859 H         1 UNK         0.0793 
    125 H125      -81.1110   22.1077  -73.6635 H         1 UNK         0.0793 
    126 H126      -82.4461   22.0298  -74.8161 H         1 UNK         0.0793 
    127 H127      -80.3135   25.2541  -73.3957 H         1 UNK         0.2896 
@<TRIPOS>BOND
     1    1    2 1    
     2    1   67 1    
     3    1   68 1    
     4    1   69 1    
     5    2    3 2    
     6    2    4 am   BACKBONE|DICT|INTERRES
     7    4    5 1    
     8    4   70 1    
     9    5    6 1    
    10    5   65 1    
    11    5   71 1    
    12    6    7 1    
    13    6   72 1    
    14    6   73 1    
    15    7    8 1    
    16    8    9 1    
    17    8   74 1    
    18    8   75 1    
    19    9   10 ar   
    20    9   14 ar   
    21   10   11 ar   
    22   10   76 1    
    23   11   12 ar   
    24   11   48 1    
    25   12   13 ar   
    26   12   77 1    
    27   13   14 ar   
    28   13   15 1    
    29   14   78 1    
    30   15   16 1    
    31   15   79 1    
    32   15   80 1    
    33   16   17 1    
    34   17   18 1    
    35   17   81 1    
    36   17   82 1    
    37   18   19 1    
    38   18   22 1    
    39   18   83 1    
    40   19   20 am   BACKBONE|DICT|INTERRES
    41   19   21 2    
    42   20   84 1    
    43   20   85 1    
    44   22   23 am   BACKBONE|DICT|INTERRES
    45   22   86 1    
    46   23   24 2    
    47   23   25 1    
    48   25   26 1    
    49   25   27 1    
    50   25   87 1    
    51   26   88 1    
    52   26   89 1    
    53   26   90 1    
    54   27   28 am   BACKBONE|DICT|INTERRES
    55   27   91 1    
    56   28   29 2    
    57   28   30 1    
    58   30   31 1    
    59   30   32 1    
    60   30   92 1    
    61   31   93 1    
    62   31   94 1    
    63   31   95 1    
    64   32   33 am   BACKBONE|DICT|INTERRES
    65   32   96 1    
    66   33   34 2    
    67   33   35 1    
    68   35   36 1    
    69   35   37 1    
    70   35   97 1    
    71   36   98 1    
    72   36   99 1    
    73   36  100 1    
    74   37   38 am   BACKBONE|DICT|INTERRES
    75   37  101 1    
    76   38   39 2    
    77   38   40 1    
    78   40   41 1    
    79   40   42 1    
    80   40  102 1    
    81   41  103 1    
    82   41  104 1    
    83   41  105 1    
    84   42   43 am   BACKBONE|DICT|INTERRES
    85   42  106 1    
    86   43   44 2    
    87   43   45 1    
    88   45   46 1    
    89   45   49 1    
    90   45  107 1    
    91   46   47 1    
    92   46  108 1    
    93   46  109 1    
    94   47   48 1    
    95   48  110 1    
    96   48  111 1    
    97   49   50 am   BACKBONE|DICT|INTERRES
    98   49  112 1    
    99   50   51 2    
   100   50   52 1    
   101   52   53 1    
   102   52   54 1    
   103   52  113 1    
   104   53  114 1    
   105   53  115 1    
   106   53  116 1    
   107   54   55 am   BACKBONE|DICT|INTERRES
   108   54  117 1    
   109   55   56 2    
   110   55   57 1    
   111   57   58 1    
   112   57   59 1    
   113   57  118 1    
   114   58  119 1    
   115   58  120 1    
   116   58  121 1    
   117   59   60 am   BACKBONE|DICT|INTERRES
   118   59  122 1    
   119   60   61 2    
   120   60   62 1    
   121   62   63 1    
   122   62   64 1    
   123   62  123 1    
   124   63  124 1    
   125   63  125 1    
   126   63  126 1    
   127   64   65 am   BACKBONE|DICT|INTERRES
   128   64  127 1    
   129   65   66 2    
@<TRIPOS>SUBSTRUCTURE
     1 UNK         1 GROUP             0       ****    0 ROOT    
