@<TRIPOS>MOLECULE
3R135
127   129    1
SMALL
USER_CHARGES


@<TRIPOS>ATOM
      1 CA        -83.4614   27.1440  -76.4330 C.3       0 UNK        -0.1998 
      2 C         -82.2144   27.8707  -75.9523 C.2       0 UNK         0.4909 
      3 O         -81.3798   28.2579  -76.7713 O.2       0 UNK        -0.5240 
      4 N         -82.0846   28.0559  -74.6304 N.am      1 UNK        -0.4739 
      5 CA        -80.9456   28.6922  -73.9567 C.3       1 UNK         0.0864 
      6 C6        -81.1979   28.7951  -72.4296 C.3       11 UNK        -0.0881 
      7 S7        -80.1993   30.0886  -71.6124 S.3       11 UNK        -0.2682 
      8 C8        -79.5985   29.2326  -70.1164 C.3       11 UNK         0.0289 
      9 C9        -78.1913   28.6857  -70.3083 C.ar      11 UNK        -0.0687 
     10 C10       -77.9784   27.5596  -71.1060 C.ar      11 UNK        -0.0823 
     11 C11       -76.6847   27.0925  -71.3465 C.ar      11 UNK        -0.0830 
     12 C12       -75.6010   27.7167  -70.7229 C.ar      11 UNK        -0.1021 
     13 C13       -75.8009   28.8280  -69.8983 C.ar      11 UNK        -0.0753 
     14 C14       -77.0982   29.3139  -69.7025 C.ar      11 UNK        -0.0933 
     15 C15       -74.6143   29.5151  -69.2339 C.3       11 UNK         0.0166 
     16 S16       -73.4306   30.1965  -70.4420 S.3       11 UNK        -0.2615 
     17 C17       -74.4863   31.3364  -71.4032 C.3       11 UNK        -0.0865 
     18 CA        -74.8853   30.7463  -72.7874 C.3       10 UNK         0.0862 
     19 C         -75.9610   31.6195  -73.4954 C.2       10 UNK         0.5551 
     20 N         -77.1711   31.6518  -72.9535 N.am      10 UNK        -0.7319 
     21 O         -75.7330   32.2569  -74.5206 O.2       10 UNK        -0.5018 
     22 N         -73.7216   30.3977  -73.6231 N.am      10 UNK        -0.4509 
     23 C         -72.7720   31.2166  -74.0975 C.2       10 UNK         0.4899 
     24 O         -72.7385   32.4288  -73.8807 O.2       10 UNK        -0.4839 
     25 CA        -71.6332   30.5842  -74.9314 C.3       9 UNK         0.0222 
     26 CB        -70.2581   30.9539  -74.3458 C.3       9 UNK        -0.1966 
     27 N         -71.7051   29.1222  -75.0625 N.am      9 UNK        -0.4218 
     28 C         -72.5488   28.4547  -75.8604 C.2       9 UNK         0.5020 
     29 O         -73.3671   29.0139  -76.5915 O.2       9 UNK        -0.5274 
     30 CA        -72.4796   26.9150  -75.7933 C.3       8 UNK         0.0270 
     31 CB        -72.6145   26.4038  -74.3474 C.3       8 UNK        -0.1976 
     32 N         -73.5152   26.2877  -76.6226 N.am      8 UNK        -0.4313 
     33 C         -73.4108   26.0967  -77.9438 C.2       8 UNK         0.5041 
     34 O         -72.3806   26.3016  -78.5906 O.2       8 UNK        -0.5577 
     35 CA        -74.6848   25.5975  -78.6463 C.3       7 UNK         0.0284 
     36 CB        -74.5713   25.5776  -80.1866 C.3       7 UNK        -0.1958 
     37 N         -75.1389   24.3031  -78.1226 N.am      7 UNK        -0.4454 
     38 C         -74.5460   23.1066  -78.2544 C.2       7 UNK         0.5089 
     39 O         -73.4678   22.9217  -78.8209 O.2       7 UNK        -0.5125 
     40 CA        -75.3266   21.9122  -77.6691 C.3       6 UNK         0.0408 
     41 CB        -74.5715   20.5693  -77.7770 C.3       6 UNK        -0.1791 
     42 N         -75.7926   22.1652  -76.3010 N.am      6 UNK        -0.4762 
     43 C         -75.0377   22.3226  -75.1997 C.2       6 UNK         0.5007 
     44 O         -73.8136   22.1884  -75.1939 O.2       6 UNK        -0.5032 
     45 CA        -75.7527   22.7335  -73.8909 C.3       5 UNK         0.0783 
     46 C46       -74.9215   23.8044  -73.1412 C.3       11 UNK        -0.0857 
     47 S47       -75.7126   24.4881  -71.6435 S.3       11 UNK        -0.2512 
     48 C48       -76.4503   25.9873  -72.3611 C.3       11 UNK         0.0225 
     49 N         -77.1150   23.1968  -74.1713 N.am      5 UNK        -0.4615 
     50 C         -78.2312   22.4909  -73.9528 C.2       4 UNK         0.5053 
     51 O         -78.2442   21.3649  -73.4556 O.2       4 UNK        -0.5105 
     52 CA        -79.5618   23.1373  -74.3807 C.3       4 UNK         0.0263 
     53 CB        -80.2956   23.7069  -73.1558 C.3       4 UNK        -0.1981 
     54 N         -79.4057   24.1900  -75.3920 N.am      4 UNK        -0.4224 
     55 C         -78.9918   23.9752  -76.6515 C.2       3 UNK         0.4895 
     56 O         -78.6936   22.8631  -77.0865 O.2       3 UNK        -0.5091 
     57 CA        -78.8292   25.1944  -77.5762 C.3       3 UNK         0.0250 
     58 CB        -80.0804   25.3727  -78.4489 C.3       3 UNK        -0.1996 
     59 N         -78.5487   26.4460  -76.8713 N.am      3 UNK        -0.4254 
     60 C         -77.4681   26.6905  -76.1155 C.2       2 UNK         0.5004 
     61 O         -76.5538   25.8816  -75.9316 O.2       2 UNK        -0.5226 
     62 CA        -77.4122   28.0673  -75.4299 C.3       2 UNK         0.0269 
     63 CB        -76.7829   29.0802  -76.3970 C.3       2 UNK        -0.1926 
     64 N         -78.7046   28.5958  -74.9694 N.am      2 UNK        -0.4687 
     65 C         -79.6430   27.9326  -74.2767 C.2       1 UNK         0.5165 
     66 O         -79.5457   26.7508  -73.9422 O.2       1 UNK        -0.5079 
     67 H67       -83.9900   27.7524  -77.1663 H         1 UNK         0.0900 
     68 H68       -83.1896   26.2008  -76.9053 H         1 UNK         0.0900 
     69 H69       -84.1484   26.9280  -75.6150 H         1 UNK         0.0900 
     70 H70       -82.7987   27.6896  -74.0174 H         1 UNK         0.2959 
     71 H71       -80.8711   29.7036  -74.3623 H         1 UNK         0.1079 
     72 H72       -81.0601   27.8279  -71.9428 H         1 UNK         0.0837 
     73 H73       -82.2398   29.0631  -72.2469 H         1 UNK         0.0837 
     74 H74       -80.2785   28.4286  -69.8319 H         1 UNK         0.0685 
     75 H75       -79.6144   29.9426  -69.2881 H         1 UNK         0.0685 
     76 H76       -78.8208   27.0724  -71.5726 H         1 UNK         0.1434 
     77 H77       -74.5967   27.3585  -70.9056 H         1 UNK         0.1329 
     78 H78       -77.2575   30.1840  -69.0802 H         1 UNK         0.1335 
     79 H79       -74.0955   28.7934  -68.6016 H         1 UNK         0.0680 
     80 H80       -74.9470   30.3178  -68.5738 H         1 UNK         0.0680 
     81 H81       -75.3705   31.5789  -70.8117 H         1 UNK         0.1032 
     82 H82       -73.9527   32.2797  -71.5275 H         1 UNK         0.1032 
     83 H83       -75.3773   29.7897  -72.6114 H         1 UNK         0.0461 
     84 H84       -77.8835   32.2160  -73.3884 H         1 UNK         0.3453 
     85 H85       -77.3956   31.1120  -72.1323 H         1 UNK         0.3453 
     86 H86       -73.6572   29.4264  -73.8822 H         1 UNK         0.2984 
     87 H87       -71.6982   31.0177  -75.9316 H         1 UNK         0.0554 
     88 H88       -70.1263   32.0360  -74.3017 H         1 UNK         0.0847 
     89 H89       -69.4454   30.5596  -74.9561 H         1 UNK         0.0847 
     90 H90       -70.1360   30.5710  -73.3318 H         1 UNK         0.0847 
     91 H91       -71.0683   28.5926  -74.4841 H         1 UNK         0.3141 
     92 H92       -71.4978   26.6161  -76.1672 H         1 UNK         0.0743 
     93 H93       -73.5561   26.7131  -73.8942 H         1 UNK         0.0784 
     94 H94       -72.5550   25.3160  -74.3145 H         1 UNK         0.0784 
     95 H95       -71.8108   26.7727  -73.7096 H         1 UNK         0.0784 
     96 H96       -74.4185   26.1263  -76.1922 H         1 UNK         0.3213 
     97 H97       -75.4660   26.3189  -78.4029 H         1 UNK         0.0855 
     98 H98       -73.7795   24.9125  -80.5322 H         1 UNK         0.0814 
     99 H99       -74.3435   26.5730  -80.5696 H         1 UNK         0.0814 
    100 H100      -75.5049   25.2582  -80.6495 H         1 UNK         0.0814 
    101 H101      -75.9694   24.3464  -77.5477 H         1 UNK         0.3105 
    102 H102      -76.2284   21.8193  -78.2764 H         1 UNK         0.0547 
    103 H103      -75.1583   19.7490  -77.3641 H         1 UNK         0.0837 
    104 H104      -73.6136   20.5931  -77.2572 H         1 UNK         0.0837 
    105 H105      -74.3638   20.3252  -78.8194 H         1 UNK         0.0837 
    106 H106      -76.7947   22.2917  -76.2098 H         1 UNK         0.3020 
    107 H107      -75.7858   21.8399  -73.2636 H         1 UNK         0.1245 
    108 H108      -74.6840   24.6189  -73.8230 H         1 UNK         0.0781 
    109 H109      -73.9610   23.3870  -72.8328 H         1 UNK         0.0781 
    110 H110      -77.3792   25.7128  -72.8608 H         1 UNK         0.0836 
    111 H111      -75.7979   26.3912  -73.1334 H         1 UNK         0.0836 
    112 H112      -77.1905   24.1077  -74.6053 H         1 UNK         0.3022 
    113 H113      -80.1828   22.3508  -74.8147 H         1 UNK         0.0747 
    114 H114      -81.2396   24.1742  -73.4366 H         1 UNK         0.0793 
    115 H115      -80.5240   22.9180  -72.4381 H         1 UNK         0.0793 
    116 H116      -79.6935   24.4523  -72.6350 H         1 UNK         0.0793 
    117 H117      -79.5739   25.1424  -75.0782 H         1 UNK         0.3047 
    118 H118      -77.9847   24.9934  -78.2376 H         1 UNK         0.0822 
    119 H119      -79.9568   26.1898  -79.1600 H         1 UNK         0.0807 
    120 H120      -80.9642   25.5836  -77.8468 H         1 UNK         0.0807 
    121 H121      -80.2867   24.4702  -79.0261 H         1 UNK         0.0807 
    122 H122      -79.2565   27.1680  -76.9330 H         1 UNK         0.2946 
    123 H123      -76.7660   27.9738  -74.5569 H         1 UNK         0.1144 
    124 H124      -76.5197   30.0084  -75.8928 H         1 UNK         0.0793 
    125 H125      -77.4555   29.3253  -77.2198 H         1 UNK         0.0793 
    126 H126      -75.8695   28.6854  -76.8407 H         1 UNK         0.0793 
    127 H127      -78.8961   29.5550  -75.2203 H         1 UNK         0.2896 
@<TRIPOS>BOND
     1    1    2 1    
     2    1   67 1    
     3    1   68 1    
     4    1   69 1    
     5    2    3 2    
     6    2    4 am   BACKBONE|DICT|INTERRES
     7    4    5 1    
     8    4   70 1    
     9    5    6 1    
    10    5   65 1    
    11    5   71 1    
    12    6    7 1    
    13    6   72 1    
    14    6   73 1    
    15    7    8 1    
    16    8    9 1    
    17    8   74 1    
    18    8   75 1    
    19    9   10 ar   
    20    9   14 ar   
    21   10   11 ar   
    22   10   76 1    
    23   11   12 ar   
    24   11   48 1    
    25   12   13 ar   
    26   12   77 1    
    27   13   14 ar   
    28   13   15 1    
    29   14   78 1    
    30   15   16 1    
    31   15   79 1    
    32   15   80 1    
    33   16   17 1    
    34   17   18 1    
    35   17   81 1    
    36   17   82 1    
    37   18   19 1    
    38   18   22 1    
    39   18   83 1    
    40   19   20 am   BACKBONE|DICT|INTERRES
    41   19   21 2    
    42   20   84 1    
    43   20   85 1    
    44   22   23 am   BACKBONE|DICT|INTERRES
    45   22   86 1    
    46   23   24 2    
    47   23   25 1    
    48   25   26 1    
    49   25   27 1    
    50   25   87 1    
    51   26   88 1    
    52   26   89 1    
    53   26   90 1    
    54   27   28 am   BACKBONE|DICT|INTERRES
    55   27   91 1    
    56   28   29 2    
    57   28   30 1    
    58   30   31 1    
    59   30   32 1    
    60   30   92 1    
    61   31   93 1    
    62   31   94 1    
    63   31   95 1    
    64   32   33 am   BACKBONE|DICT|INTERRES
    65   32   96 1    
    66   33   34 2    
    67   33   35 1    
    68   35   36 1    
    69   35   37 1    
    70   35   97 1    
    71   36   98 1    
    72   36   99 1    
    73   36  100 1    
    74   37   38 am   BACKBONE|DICT|INTERRES
    75   37  101 1    
    76   38   39 2    
    77   38   40 1    
    78   40   41 1    
    79   40   42 1    
    80   40  102 1    
    81   41  103 1    
    82   41  104 1    
    83   41  105 1    
    84   42   43 am   BACKBONE|DICT|INTERRES
    85   42  106 1    
    86   43   44 2    
    87   43   45 1    
    88   45   46 1    
    89   45   49 1    
    90   45  107 1    
    91   46   47 1    
    92   46  108 1    
    93   46  109 1    
    94   47   48 1    
    95   48  110 1    
    96   48  111 1    
    97   49   50 am   BACKBONE|DICT|INTERRES
    98   49  112 1    
    99   50   51 2    
   100   50   52 1    
   101   52   53 1    
   102   52   54 1    
   103   52  113 1    
   104   53  114 1    
   105   53  115 1    
   106   53  116 1    
   107   54   55 am   BACKBONE|DICT|INTERRES
   108   54  117 1    
   109   55   56 2    
   110   55   57 1    
   111   57   58 1    
   112   57   59 1    
   113   57  118 1    
   114   58  119 1    
   115   58  120 1    
   116   58  121 1    
   117   59   60 am   BACKBONE|DICT|INTERRES
   118   59  122 1    
   119   60   61 2    
   120   60   62 1    
   121   62   63 1    
   122   62   64 1    
   123   62  123 1    
   124   63  124 1    
   125   63  125 1    
   126   63  126 1    
   127   64   65 am   BACKBONE|DICT|INTERRES
   128   64  127 1    
   129   65   66 2    
@<TRIPOS>SUBSTRUCTURE
     1 UNK         1 GROUP             0       ****    0 ROOT    
