@<TRIPOS>MOLECULE
3R135
127   129    1
SMALL
USER_CHARGES


@<TRIPOS>ATOM
      1 CA        -77.9741   22.5206  -76.3059 C.3       0 UNK        -0.1998 
      2 C         -77.9945   22.4567  -74.7863 C.2       0 UNK         0.4909 
      3 O         -77.6949   21.4070  -74.2171 O.2       0 UNK        -0.5240 
      4 N         -78.3463   23.5670  -74.1243 N.am      1 UNK        -0.4739 
      5 CA        -78.4953   23.6542  -72.6660 C.3       1 UNK         0.0864 
      6 C6        -78.1738   25.0753  -72.1306 C.3       11 UNK        -0.0881 
      7 S7        -79.3721   26.3751  -72.5942 S.3       11 UNK        -0.2682 
      8 C8        -78.6079   27.8466  -71.8443 C.3       11 UNK         0.0289 
      9 C9        -77.6069   28.5005  -72.7847 C.ar      11 UNK        -0.0687 
     10 C10       -78.0461   29.4350  -73.7272 C.ar      11 UNK        -0.0823 
     11 C11       -77.1414   30.0287  -74.6117 C.ar      11 UNK        -0.0830 
     12 C12       -75.7835   29.7121  -74.5204 C.ar      11 UNK        -0.1021 
     13 C13       -75.3260   28.7962  -73.5699 C.ar      11 UNK        -0.0753 
     14 C14       -76.2472   28.1812  -72.7132 C.ar      11 UNK        -0.0933 
     15 C15       -73.8386   28.4649  -73.5155 C.3       11 UNK         0.0166 
     16 S16       -73.1645   28.3393  -71.8251 S.3       11 UNK        -0.2615 
     17 C17       -73.3772   30.0289  -71.1596 C.3       11 UNK        -0.0865 
     18 CA        -72.8507   31.1869  -72.0529 C.3       10 UNK         0.0862 
     19 C         -72.9894   32.5452  -71.3028 C.2       10 UNK         0.5551 
     20 N         -71.9042   33.2126  -70.9299 N.am      10 UNK        -0.7319 
     21 O         -74.1040   32.9972  -71.0534 O.2       10 UNK        -0.5018 
     22 N         -71.5152   30.8982  -72.6071 N.am      10 UNK        -0.4509 
     23 C         -70.9307   31.5829  -73.5995 C.2       10 UNK         0.4899 
     24 O         -71.4184   32.5799  -74.1325 O.2       10 UNK        -0.4839 
     25 CA        -69.5747   31.0529  -74.0994 C.3       9 UNK         0.0222 
     26 CB        -68.4346   31.5494  -73.1949 C.3       9 UNK        -0.1966 
     27 N         -69.5118   29.5905  -74.2166 N.am      9 UNK        -0.4218 
     28 C         -70.2755   28.8548  -75.0371 C.2       9 UNK         0.5020 
     29 O         -71.1458   29.3271  -75.7741 O.2       9 UNK        -0.5274 
     30 CA        -70.0078   27.3422  -75.0546 C.3       8 UNK         0.0270 
     31 CB        -70.2933   26.6760  -73.6945 C.3       8 UNK        -0.1976 
     32 N         -70.8428   26.7347  -76.0861 N.am      8 UNK        -0.4313 
     33 C         -70.6137   25.5862  -76.7258 C.2       8 UNK         0.5041 
     34 O         -69.6511   24.8523  -76.4914 O.2       8 UNK        -0.5577 
     35 CA        -71.6559   25.1853  -77.7887 C.3       7 UNK         0.0284 
     36 CB        -71.1797   24.0160  -78.6715 C.3       7 UNK        -0.1958 
     37 N         -72.9349   24.8236  -77.1716 N.am      7 UNK        -0.4454 
     38 C         -73.8371   25.6925  -76.6996 C.2       7 UNK         0.5089 
     39 O         -73.6981   26.9174  -76.7503 O.2       7 UNK        -0.5125 
     40 CA        -75.0791   25.0810  -76.0288 C.3       6 UNK         0.0408 
     41 CB        -74.7547   24.6179  -74.5974 C.3       6 UNK        -0.1791 
     42 N         -76.1885   26.0349  -75.9873 N.am      6 UNK        -0.4762 
     43 C         -76.9726   26.3313  -77.0326 C.2       6 UNK         0.5007 
     44 O         -76.9001   25.7729  -78.1300 O.2       6 UNK        -0.5032 
     45 CA        -78.0139   27.4445  -76.8137 C.3       5 UNK         0.0783 
     46 C46       -77.5627   28.7732  -77.4686 C.3       11 UNK        -0.0857 
     47 S47       -78.6379   30.1596  -76.9598 S.3       11 UNK        -0.2512 
     48 C48       -77.6293   30.9918  -75.6861 C.3       11 UNK         0.0225 
     49 N         -79.3458   27.0332  -77.2690 N.am      5 UNK        -0.4615 
     50 C         -80.0789   26.0929  -76.6674 C.2       4 UNK         0.5053 
     51 O         -79.6871   25.4279  -75.7069 O.2       4 UNK        -0.5105 
     52 CA        -81.4899   25.8481  -77.2033 C.3       4 UNK         0.0263 
     53 CB        -81.5017   24.6881  -78.2149 C.3       4 UNK        -0.1981 
     54 N         -82.3149   25.5260  -76.0454 N.am      4 UNK        -0.4224 
     55 C         -83.6461   25.5922  -75.9573 C.2       3 UNK         0.4895 
     56 O         -84.3758   25.9085  -76.8988 O.2       3 UNK        -0.5091 
     57 CA        -84.2609   25.2855  -74.5736 C.3       3 UNK         0.0250 
     58 CB        -85.7053   24.7471  -74.6697 C.3       3 UNK        -0.1996 
     59 N         -83.4274   24.4200  -73.7210 N.am      3 UNK        -0.4254 
     60 C         -83.0923   23.1405  -73.9472 C.2       2 UNK         0.5004 
     61 O         -83.4255   22.5019  -74.9467 O.2       2 UNK        -0.5226 
     62 CA        -82.1770   22.4949  -72.8999 C.3       2 UNK         0.0269 
     63 CB        -82.1938   20.9540  -72.9523 C.3       2 UNK        -0.1926 
     64 N         -80.8205   22.9818  -73.1262 N.am      2 UNK        -0.4687 
     65 C         -79.8719   23.1324  -72.1922 C.2       1 UNK         0.5165 
     66 O         -80.0445   22.8717  -71.0004 O.2       1 UNK        -0.5079 
     67 H67       -78.0928   23.5384  -76.6738 H         1 UNK         0.0900 
     68 H68       -78.7802   21.9142  -76.7176 H         1 UNK         0.0900 
     69 H69       -77.0284   22.1358  -76.6859 H         1 UNK         0.0900 
     70 H70       -78.6561   24.3862  -74.6473 H         1 UNK         0.2959 
     71 H71       -77.7592   22.9836  -72.2167 H         1 UNK         0.1079 
     72 H72       -78.1078   25.0494  -71.0413 H         1 UNK         0.0837 
     73 H73       -77.1851   25.3762  -72.4787 H         1 UNK         0.0837 
     74 H74       -79.3956   28.5599  -71.5974 H         1 UNK         0.0685 
     75 H75       -78.1333   27.5825  -70.8980 H         1 UNK         0.0685 
     76 H76       -79.0984   29.6765  -73.7953 H         1 UNK         0.1434 
     77 H77       -75.0794   30.1700  -75.2023 H         1 UNK         0.1329 
     78 H78       -75.9050   27.4598  -71.9842 H         1 UNK         0.1335 
     79 H79       -73.6703   27.5213  -74.0299 H         1 UNK         0.0680 
     80 H80       -73.2613   29.2035  -74.0712 H         1 UNK         0.0680 
     81 H81       -72.8813   30.0519  -70.1873 H         1 UNK         0.1032 
     82 H82       -74.4398   30.1733  -70.9534 H         1 UNK         0.1032 
     83 H83       -73.5235   31.2658  -72.9086 H         1 UNK         0.0461 
     84 H84       -70.9879   32.8486  -71.1350 H         1 UNK         0.3453 
     85 H85       -72.0042   34.0912  -70.4464 H         1 UNK         0.3453 
     86 H86       -71.0483   30.0855  -72.2336 H         1 UNK         0.2984 
     87 H87       -69.4132   31.4648  -75.0979 H         1 UNK         0.0554 
     88 H88       -67.4594   31.2757  -73.5981 H         1 UNK         0.0847 
     89 H89       -68.5078   31.1412  -72.1861 H         1 UNK         0.0847 
     90 H90       -68.4512   32.6369  -73.1080 H         1 UNK         0.0847 
     91 H91       -68.8157   29.1212  -73.6548 H         1 UNK         0.3141 
     92 H92       -68.9573   27.1990  -75.3163 H         1 UNK         0.0743 
     93 H93       -71.3529   26.7130  -73.4462 H         1 UNK         0.0784 
     94 H94       -69.9963   25.6271  -73.7020 H         1 UNK         0.0784 
     95 H95       -69.7464   27.1557  -72.8824 H         1 UNK         0.0784 
     96 H96       -71.6580   27.2871  -76.3444 H         1 UNK         0.3213 
     97 H97       -71.8092   26.0493  -78.4397 H         1 UNK         0.0855 
     98 H98       -70.2339   24.2564  -79.1589 H         1 UNK         0.0814 
     99 H99       -71.9002   23.7941  -79.4589 H         1 UNK         0.0814 
    100 H100      -71.0247   23.1054  -78.0913 H         1 UNK         0.0814 
    101 H101      -73.1094   23.8354  -77.0561 H         1 UNK         0.3105 
    102 H102      -75.3869   24.2095  -76.6103 H         1 UNK         0.0547 
    103 H103      -74.4889   25.4471  -73.9442 H         1 UNK         0.0837 
    104 H104      -73.9181   23.9183  -74.5877 H         1 UNK         0.0837 
    105 H105      -75.6004   24.1045  -74.1439 H         1 UNK         0.0837 
    106 H106      -76.2769   26.5797  -75.1411 H         1 UNK         0.3020 
    107 H107      -78.0907   27.6032  -75.7369 H         1 UNK         0.1245 
    108 H108      -77.5897   28.6924  -78.5568 H         1 UNK         0.0781 
    109 H109      -76.5276   29.0081  -77.2133 H         1 UNK         0.0781 
    110 H110      -78.2231   31.7802  -75.2216 H         1 UNK         0.0836 
    111 H111      -76.7886   31.4898  -76.1717 H         1 UNK         0.0836 
    112 H112      -79.7193   27.5272  -78.0658 H         1 UNK         0.3022 
    113 H113      -81.8646   26.7604  -77.6721 H         1 UNK         0.0747 
    114 H114      -82.5051   24.5057  -78.5999 H         1 UNK         0.0793 
    115 H115      -80.8609   24.9082  -79.0695 H         1 UNK         0.0793 
    116 H116      -81.1428   23.7609  -77.7656 H         1 UNK         0.0793 
    117 H117      -81.7756   25.2960  -75.2200 H         1 UNK         0.3047 
    118 H118      -84.3101   26.2470  -74.0601 H         1 UNK         0.0822 
    119 H119      -86.1251   24.5566  -73.6820 H         1 UNK         0.0807 
    120 H120      -85.7554   23.8197  -75.2410 H         1 UNK         0.0807 
    121 H121      -86.3598   25.4663  -75.1636 H         1 UNK         0.0807 
    122 H122      -83.0630   24.8606  -72.8866 H         1 UNK         0.2946 
    123 H123      -82.5253   22.8098  -71.9131 H         1 UNK         0.1144 
    124 H124      -83.2082   20.5708  -72.8347 H         1 UNK         0.0793 
    125 H125      -81.5903   20.5239  -72.1529 H         1 UNK         0.0793 
    126 H126      -81.8082   20.5774  -73.9005 H         1 UNK         0.0793 
    127 H127      -80.5886   23.2343  -74.0774 H         1 UNK         0.2896 
@<TRIPOS>BOND
     1    1    2 1    
     2    1   67 1    
     3    1   68 1    
     4    1   69 1    
     5    2    3 2    
     6    2    4 am   BACKBONE|DICT|INTERRES
     7    4    5 1    
     8    4   70 1    
     9    5    6 1    
    10    5   65 1    
    11    5   71 1    
    12    6    7 1    
    13    6   72 1    
    14    6   73 1    
    15    7    8 1    
    16    8    9 1    
    17    8   74 1    
    18    8   75 1    
    19    9   10 ar   
    20    9   14 ar   
    21   10   11 ar   
    22   10   76 1    
    23   11   12 ar   
    24   11   48 1    
    25   12   13 ar   
    26   12   77 1    
    27   13   14 ar   
    28   13   15 1    
    29   14   78 1    
    30   15   16 1    
    31   15   79 1    
    32   15   80 1    
    33   16   17 1    
    34   17   18 1    
    35   17   81 1    
    36   17   82 1    
    37   18   19 1    
    38   18   22 1    
    39   18   83 1    
    40   19   20 am   BACKBONE|DICT|INTERRES
    41   19   21 2    
    42   20   84 1    
    43   20   85 1    
    44   22   23 am   BACKBONE|DICT|INTERRES
    45   22   86 1    
    46   23   24 2    
    47   23   25 1    
    48   25   26 1    
    49   25   27 1    
    50   25   87 1    
    51   26   88 1    
    52   26   89 1    
    53   26   90 1    
    54   27   28 am   BACKBONE|DICT|INTERRES
    55   27   91 1    
    56   28   29 2    
    57   28   30 1    
    58   30   31 1    
    59   30   32 1    
    60   30   92 1    
    61   31   93 1    
    62   31   94 1    
    63   31   95 1    
    64   32   33 am   BACKBONE|DICT|INTERRES
    65   32   96 1    
    66   33   34 2    
    67   33   35 1    
    68   35   36 1    
    69   35   37 1    
    70   35   97 1    
    71   36   98 1    
    72   36   99 1    
    73   36  100 1    
    74   37   38 am   BACKBONE|DICT|INTERRES
    75   37  101 1    
    76   38   39 2    
    77   38   40 1    
    78   40   41 1    
    79   40   42 1    
    80   40  102 1    
    81   41  103 1    
    82   41  104 1    
    83   41  105 1    
    84   42   43 am   BACKBONE|DICT|INTERRES
    85   42  106 1    
    86   43   44 2    
    87   43   45 1    
    88   45   46 1    
    89   45   49 1    
    90   45  107 1    
    91   46   47 1    
    92   46  108 1    
    93   46  109 1    
    94   47   48 1    
    95   48  110 1    
    96   48  111 1    
    97   49   50 am   BACKBONE|DICT|INTERRES
    98   49  112 1    
    99   50   51 2    
   100   50   52 1    
   101   52   53 1    
   102   52   54 1    
   103   52  113 1    
   104   53  114 1    
   105   53  115 1    
   106   53  116 1    
   107   54   55 am   BACKBONE|DICT|INTERRES
   108   54  117 1    
   109   55   56 2    
   110   55   57 1    
   111   57   58 1    
   112   57   59 1    
   113   57  118 1    
   114   58  119 1    
   115   58  120 1    
   116   58  121 1    
   117   59   60 am   BACKBONE|DICT|INTERRES
   118   59  122 1    
   119   60   61 2    
   120   60   62 1    
   121   62   63 1    
   122   62   64 1    
   123   62  123 1    
   124   63  124 1    
   125   63  125 1    
   126   63  126 1    
   127   64   65 am   BACKBONE|DICT|INTERRES
   128   64  127 1    
   129   65   66 2    
@<TRIPOS>SUBSTRUCTURE
     1 UNK         1 GROUP             0       ****    0 ROOT    
