@<TRIPOS>MOLECULE
3R135
127   129    1
SMALL
USER_CHARGES


@<TRIPOS>ATOM
      1 CA        -76.8646   23.4910  -73.0930 C.3       0 UNK        -0.1998 
      2 C         -78.0152   23.8142  -72.1511 C.2       0 UNK         0.4909 
      3 O         -78.0127   23.3704  -71.0030 O.2       0 UNK        -0.5240 
      4 N         -79.0074   24.5691  -72.6365 N.am      1 UNK        -0.4739 
      5 CA        -80.2755   24.8597  -71.9480 C.3       1 UNK         0.0864 
      6 C6        -81.0597   26.0418  -72.5960 C.3       11 UNK        -0.0881 
      7 S7        -80.0158   27.3395  -73.3403 S.3       11 UNK        -0.2682 
      8 C8        -79.8045   28.5057  -71.9660 C.3       11 UNK         0.0289 
      9 C9        -78.6464   29.4359  -72.2809 C.ar      11 UNK        -0.0687 
     10 C10       -78.7917   30.4244  -73.2571 C.ar      11 UNK        -0.0823 
     11 C11       -77.6991   31.2049  -73.6405 C.ar      11 UNK        -0.0830 
     12 C12       -76.4610   31.0088  -73.0214 C.ar      11 UNK        -0.1021 
     13 C13       -76.3096   30.0417  -72.0207 C.ar      11 UNK        -0.0753 
     14 C14       -77.4099   29.2607  -71.6542 C.ar      11 UNK        -0.0933 
     15 C15       -74.9480   29.7578  -71.3979 C.3       11 UNK         0.0166 
     16 S16       -74.0174   31.2561  -70.9519 S.3       11 UNK        -0.2615 
     17 C17       -72.4080   30.5204  -70.5053 C.3       11 UNK        -0.0865 
     18 CA        -71.3805   30.5839  -71.6671 C.3       10 UNK         0.0862 
     19 C         -69.9408   30.2741  -71.1613 C.2       10 UNK         0.5551 
     20 N         -69.2677   29.2396  -71.6518 N.am      10 UNK        -0.7319 
     21 O         -69.4201   30.9954  -70.3139 O.2       10 UNK        -0.5018 
     22 N         -71.7914   29.7522  -72.8130 N.am      10 UNK        -0.4509 
     23 C         -71.5186   30.0241  -74.0929 C.2       10 UNK         0.4899 
     24 O         -70.9719   31.0643  -74.4616 O.2       10 UNK        -0.4839 
     25 CA        -71.8926   28.9770  -75.1620 C.3       9 UNK         0.0222 
     26 CB        -70.6564   28.1508  -75.5663 C.3       9 UNK        -0.1966 
     27 N         -73.0283   28.0888  -74.8711 N.am      9 UNK        -0.4218 
     28 C         -73.1667   27.1553  -73.9181 C.2       9 UNK         0.5020 
     29 O         -72.3803   27.0030  -72.9826 O.2       9 UNK        -0.5274 
     30 CA        -74.3873   26.2230  -74.0380 C.3       8 UNK         0.0270 
     31 CB        -75.6553   26.8972  -73.4917 C.3       8 UNK        -0.1976 
     32 N         -74.6275   25.7772  -75.4130 N.am      8 UNK        -0.4313 
     33 C         -73.8001   24.9953  -76.1232 C.2       8 UNK         0.5041 
     34 O         -72.7608   24.5076  -75.6776 O.2       8 UNK        -0.5577 
     35 CA        -74.1934   24.7146  -77.5816 C.3       7 UNK         0.0284 
     36 CB        -75.1661   23.5274  -77.6648 C.3       7 UNK        -0.1958 
     37 N         -74.7962   25.8935  -78.2058 N.am      7 UNK        -0.4454 
     38 C         -74.0943   26.8943  -78.7563 C.2       7 UNK         0.5089 
     39 O         -72.8694   26.8839  -78.8802 O.2       7 UNK        -0.5125 
     40 CA        -74.8835   28.1229  -79.2498 C.3       6 UNK         0.0408 
     41 CB        -75.2195   27.9773  -80.7423 C.3       6 UNK        -0.1791 
     42 N         -76.1170   28.3826  -78.5011 N.am      6 UNK        -0.4762 
     43 C         -76.1715   28.7059  -77.1996 C.2       6 UNK         0.5007 
     44 O         -75.1750   28.8215  -76.4875 O.2       6 UNK        -0.5032 
     45 CA        -77.5791   28.8549  -76.5748 C.3       5 UNK         0.0783 
     46 C46       -78.1742   30.2754  -76.7913 C.3       11 UNK        -0.0857 
     47 S47       -77.0982   31.6745  -76.3026 S.3       11 UNK        -0.2512 
     48 C48       -77.8493   32.2399  -74.7436 C.3       11 UNK         0.0225 
     49 N         -78.5148   27.8276  -77.0623 N.am      5 UNK        -0.4615 
     50 C         -78.3166   26.5003  -77.0733 C.2       4 UNK         0.5053 
     51 O         -77.3081   25.9536  -76.6204 O.2       4 UNK        -0.5105 
     52 CA        -79.3865   25.6786  -77.8200 C.3       4 UNK         0.0263 
     53 CB        -79.2883   25.9389  -79.3345 C.3       4 UNK        -0.1981 
     54 N         -79.3090   24.2293  -77.6027 N.am      4 UNK        -0.4224 
     55 C         -79.5410   23.6120  -76.4394 C.2       3 UNK         0.4895 
     56 O         -79.7790   24.2085  -75.3854 O.2       3 UNK        -0.5091 
     57 CA        -79.5138   22.0678  -76.4554 C.3       3 UNK         0.0250 
     58 CB        -78.0762   21.5422  -76.6010 C.3       3 UNK        -0.1996 
     59 N         -80.0753   21.5576  -75.2040 N.am      3 UNK        -0.4254 
     60 C         -81.3889   21.4635  -74.9427 C.2       2 UNK         0.5004 
     61 O         -82.2678   21.3831  -75.8009 O.2       2 UNK        -0.5226 
     62 CA        -81.7698   21.6549  -73.4692 C.3       2 UNK         0.0269 
     63 CB        -81.3303   20.4627  -72.5973 C.3       2 UNK        -0.1926 
     64 N         -81.1083   22.8938  -73.0736 N.am      2 UNK        -0.4687 
     65 C         -81.1628   23.5951  -71.9384 C.2       1 UNK         0.5165 
     66 O         -81.8423   23.2980  -70.9556 O.2       1 UNK        -0.5079 
     67 H67       -75.9260   23.8473  -72.6713 H         1 UNK         0.0900 
     68 H68       -76.9972   23.9494  -74.0737 H         1 UNK         0.0900 
     69 H69       -76.7856   22.4132  -73.2318 H         1 UNK         0.0900 
     70 H70       -78.9764   24.8793  -73.6027 H         1 UNK         0.2959 
     71 H71       -80.0451   25.1206  -70.9129 H         1 UNK         0.1079 
     72 H72       -81.6973   25.6895  -73.4102 H         1 UNK         0.0837 
     73 H73       -81.7373   26.4898  -71.8671 H         1 UNK         0.0837 
     74 H74       -79.6183   27.9556  -71.0422 H         1 UNK         0.0685 
     75 H75       -80.7222   29.0768  -71.8191 H         1 UNK         0.0685 
     76 H76       -79.7467   30.5510  -73.7486 H         1 UNK         0.1434 
     77 H77       -75.6089   31.5950  -73.3377 H         1 UNK         0.1329 
     78 H78       -77.2935   28.4824  -70.9124 H         1 UNK         0.1335 
     79 H79       -74.3667   29.1799  -72.1135 H         1 UNK         0.0680 
     80 H80       -75.0542   29.1377  -70.5064 H         1 UNK         0.0680 
     81 H81       -72.0405   31.0753  -69.6396 H         1 UNK         0.1032 
     82 H82       -72.5431   29.4927  -70.1631 H         1 UNK         0.1032 
     83 H83       -71.3458   31.6234  -71.9992 H         1 UNK         0.0461 
     84 H84       -69.6896   28.6379  -72.3407 H         1 UNK         0.3453 
     85 H85       -68.3346   29.0536  -71.3194 H         1 UNK         0.3453 
     86 H86       -72.1559   28.8275  -72.6035 H         1 UNK         0.2984 
     87 H87       -72.2030   29.5455  -76.0402 H         1 UNK         0.0554 
     88 H88       -70.8798   27.4946  -76.4081 H         1 UNK         0.0847 
     89 H89       -70.2955   27.5303  -74.7456 H         1 UNK         0.0847 
     90 H90       -69.8334   28.7988  -75.8708 H         1 UNK         0.0847 
     91 H91       -73.8090   28.1986  -75.5194 H         1 UNK         0.3141 
     92 H92       -74.1851   25.3337  -73.4384 H         1 UNK         0.0743 
     93 H93       -75.5840   27.0275  -72.4121 H         1 UNK         0.0784 
     94 H94       -75.8128   27.8813  -73.9333 H         1 UNK         0.0784 
     95 H95       -76.5510   26.3082  -73.6853 H         1 UNK         0.0784 
     96 H96       -75.4967   26.0715  -75.8484 H         1 UNK         0.3213 
     97 H97       -73.2868   24.4441  -78.1278 H         1 UNK         0.0855 
     98 H98       -76.0849   23.7169  -77.1109 H         1 UNK         0.0814 
     99 H99       -74.7158   22.6265  -77.2459 H         1 UNK         0.0814 
    100 H100      -75.4356   23.3056  -78.6974 H         1 UNK         0.0814 
    101 H101      -75.7950   26.0068  -78.0845 H         1 UNK         0.3105 
    102 H102      -74.2366   28.9946  -79.1300 H         1 UNK         0.0547 
    103 H103      -75.8887   27.1359  -80.9267 H         1 UNK         0.0837 
    104 H104      -75.6937   28.8776  -81.1334 H         1 UNK         0.0837 
    105 H105      -74.3162   27.8091  -81.3305 H         1 UNK         0.0837 
    106 H106      -76.9848   28.3016  -79.0105 H         1 UNK         0.3020 
    107 H107      -77.4669   28.6971  -75.4999 H         1 UNK         0.1245 
    108 H108      -79.1244   30.3596  -76.2620 H         1 UNK         0.0781 
    109 H109      -78.4158   30.4165  -77.8463 H         1 UNK         0.0781 
    110 H110      -77.3650   33.1675  -74.4349 H         1 UNK         0.0836 
    111 H111      -78.8989   32.4866  -74.9116 H         1 UNK         0.0836 
    112 H112      -79.3745   28.1783  -77.4587 H         1 UNK         0.3022 
    113 H113      -80.3651   26.0117  -77.4675 H         1 UNK         0.0747 
    114 H114      -79.4144   26.9962  -79.5706 H         1 UNK         0.0793 
    115 H115      -80.0639   25.4007  -79.8801 H         1 UNK         0.0793 
    116 H116      -78.3219   25.6285  -79.7348 H         1 UNK         0.0793 
    117 H117      -79.0875   23.6677  -78.4114 H         1 UNK         0.3047 
    118 H118      -80.1143   21.7127  -77.2958 H         1 UNK         0.0822 
    119 H119      -77.6512   21.8233  -77.5649 H         1 UNK         0.0807 
    120 H120      -78.0457   20.4538  -76.5455 H         1 UNK         0.0807 
    121 H121      -77.4187   21.9345  -75.8243 H         1 UNK         0.0807 
    122 H122      -79.4564   21.6029  -74.4081 H         1 UNK         0.2946 
    123 H123      -82.8510   21.7882  -73.3960 H         1 UNK         0.1144 
    124 H124      -81.7684   19.5330  -72.9624 H         1 UNK         0.0793 
    125 H125      -81.6550   20.5862  -71.5641 H         1 UNK         0.0793 
    126 H126      -80.2474   20.3357  -72.5913 H         1 UNK         0.0793 
    127 H127      -80.5641   23.3192  -73.8218 H         1 UNK         0.2896 
@<TRIPOS>BOND
     1    1    2 1    
     2    1   67 1    
     3    1   68 1    
     4    1   69 1    
     5    2    3 2    
     6    2    4 am   BACKBONE|DICT|INTERRES
     7    4    5 1    
     8    4   70 1    
     9    5    6 1    
    10    5   65 1    
    11    5   71 1    
    12    6    7 1    
    13    6   72 1    
    14    6   73 1    
    15    7    8 1    
    16    8    9 1    
    17    8   74 1    
    18    8   75 1    
    19    9   10 ar   
    20    9   14 ar   
    21   10   11 ar   
    22   10   76 1    
    23   11   12 ar   
    24   11   48 1    
    25   12   13 ar   
    26   12   77 1    
    27   13   14 ar   
    28   13   15 1    
    29   14   78 1    
    30   15   16 1    
    31   15   79 1    
    32   15   80 1    
    33   16   17 1    
    34   17   18 1    
    35   17   81 1    
    36   17   82 1    
    37   18   19 1    
    38   18   22 1    
    39   18   83 1    
    40   19   20 am   BACKBONE|DICT|INTERRES
    41   19   21 2    
    42   20   84 1    
    43   20   85 1    
    44   22   23 am   BACKBONE|DICT|INTERRES
    45   22   86 1    
    46   23   24 2    
    47   23   25 1    
    48   25   26 1    
    49   25   27 1    
    50   25   87 1    
    51   26   88 1    
    52   26   89 1    
    53   26   90 1    
    54   27   28 am   BACKBONE|DICT|INTERRES
    55   27   91 1    
    56   28   29 2    
    57   28   30 1    
    58   30   31 1    
    59   30   32 1    
    60   30   92 1    
    61   31   93 1    
    62   31   94 1    
    63   31   95 1    
    64   32   33 am   BACKBONE|DICT|INTERRES
    65   32   96 1    
    66   33   34 2    
    67   33   35 1    
    68   35   36 1    
    69   35   37 1    
    70   35   97 1    
    71   36   98 1    
    72   36   99 1    
    73   36  100 1    
    74   37   38 am   BACKBONE|DICT|INTERRES
    75   37  101 1    
    76   38   39 2    
    77   38   40 1    
    78   40   41 1    
    79   40   42 1    
    80   40  102 1    
    81   41  103 1    
    82   41  104 1    
    83   41  105 1    
    84   42   43 am   BACKBONE|DICT|INTERRES
    85   42  106 1    
    86   43   44 2    
    87   43   45 1    
    88   45   46 1    
    89   45   49 1    
    90   45  107 1    
    91   46   47 1    
    92   46  108 1    
    93   46  109 1    
    94   47   48 1    
    95   48  110 1    
    96   48  111 1    
    97   49   50 am   BACKBONE|DICT|INTERRES
    98   49  112 1    
    99   50   51 2    
   100   50   52 1    
   101   52   53 1    
   102   52   54 1    
   103   52  113 1    
   104   53  114 1    
   105   53  115 1    
   106   53  116 1    
   107   54   55 am   BACKBONE|DICT|INTERRES
   108   54  117 1    
   109   55   56 2    
   110   55   57 1    
   111   57   58 1    
   112   57   59 1    
   113   57  118 1    
   114   58  119 1    
   115   58  120 1    
   116   58  121 1    
   117   59   60 am   BACKBONE|DICT|INTERRES
   118   59  122 1    
   119   60   61 2    
   120   60   62 1    
   121   62   63 1    
   122   62   64 1    
   123   62  123 1    
   124   63  124 1    
   125   63  125 1    
   126   63  126 1    
   127   64   65 am   BACKBONE|DICT|INTERRES
   128   64  127 1    
   129   65   66 2    
@<TRIPOS>SUBSTRUCTURE
     1 UNK         1 GROUP             0       ****    0 ROOT    
