@<TRIPOS>MOLECULE
3R135
127   129    1
SMALL
USER_CHARGES


@<TRIPOS>ATOM
      1 CA        -85.1063   30.2117  -73.1153 C.3       0 UNK        -0.1998 
      2 C         -84.3054   29.4220  -74.1399 C.2       0 UNK         0.4909 
      3 O         -84.7127   29.3334  -75.2991 O.2       0 UNK        -0.5240 
      4 N         -83.1655   28.8562  -73.7241 N.am      1 UNK        -0.4739 
      5 CA        -82.2981   28.0183  -74.5593 C.3       1 UNK         0.0864 
      6 C6        -80.8973   27.8483  -73.9222 C.3       11 UNK        -0.0881 
      7 S7        -79.8817   29.3430  -74.1575 S.3       11 UNK        -0.2682 
      8 C8        -79.3488   29.7106  -72.4590 C.3       11 UNK         0.0289 
      9 C9        -78.1526   28.8650  -72.0454 C.ar      11 UNK        -0.0687 
     10 C10       -78.3299   27.6896  -71.3083 C.ar      11 UNK        -0.0823 
     11 C11       -77.2244   26.9467  -70.8799 C.ar      11 UNK        -0.0830 
     12 C12       -75.9364   27.3920  -71.1882 C.ar      11 UNK        -0.1021 
     13 C13       -75.7466   28.5519  -71.9430 C.ar      11 UNK        -0.0753 
     14 C14       -76.8587   29.2815  -72.3736 C.ar      11 UNK        -0.0933 
     15 C15       -74.3405   29.0100  -72.2953 C.3       11 UNK         0.0166 
     16 S16       -73.9178   30.5643  -71.4444 S.3       11 UNK        -0.2615 
     17 C17       -72.0987   30.6029  -71.5937 C.3       11 UNK        -0.0865 
     18 CA        -71.6006   31.3382  -72.8655 C.3       10 UNK         0.0862 
     19 C         -70.0641   31.5867  -72.7858 C.2       10 UNK         0.5551 
     20 N         -69.2341   30.9436  -73.5998 N.am      10 UNK        -0.7319 
     21 O         -69.6185   32.3848  -71.9650 O.2       10 UNK        -0.5018 
     22 N         -72.0358   30.6382  -74.0810 N.am      10 UNK        -0.4509 
     23 C         -72.0218   31.1368  -75.3222 C.2       10 UNK         0.4899 
     24 O         -71.7679   32.3137  -75.5831 O.2       10 UNK        -0.4839 
     25 CA        -72.3380   30.1435  -76.4624 C.3       9 UNK         0.0222 
     26 CB        -71.6068   30.5052  -77.7720 C.3       9 UNK        -0.1966 
     27 N         -72.1008   28.7316  -76.1170 N.am      9 UNK        -0.4218 
     28 C         -70.9452   28.1754  -75.7081 C.2       9 UNK         0.5020 
     29 O         -69.9031   28.8119  -75.5448 O.2       9 UNK        -0.5274 
     30 CA        -70.9488   26.6720  -75.3695 C.3       8 UNK         0.0270 
     31 CB        -70.9391   26.4732  -73.8446 C.3       8 UNK        -0.1976 
     32 N         -72.0870   25.9493  -75.9403 N.am      8 UNK        -0.4313 
     33 C         -72.2343   25.6806  -77.2466 C.2       8 UNK         0.5041 
     34 O         -71.3673   25.9135  -78.0898 O.2       8 UNK        -0.5577 
     35 CA        -73.5767   25.0802  -77.7062 C.3       7 UNK         0.0284 
     36 CB        -73.4143   23.5862  -78.0276 C.3       7 UNK        -0.1958 
     37 N         -74.6754   25.2572  -76.7497 N.am      7 UNK        -0.4454 
     38 C         -75.1813   26.4411  -76.3660 C.2       7 UNK         0.5089 
     39 O         -74.7638   27.5245  -76.7764 O.2       7 UNK        -0.5125 
     40 CA        -76.3072   26.4236  -75.3162 C.3       6 UNK         0.0408 
     41 CB        -77.6686   26.4871  -76.0195 C.3       6 UNK        -0.1791 
     42 N         -76.2769   25.2577  -74.4276 N.am      6 UNK        -0.4762 
     43 C         -75.2508   24.9195  -73.6300 C.2       6 UNK         0.5007 
     44 O         -74.2140   25.5795  -73.5392 O.2       6 UNK        -0.5032 
     45 CA        -75.3581   23.5833  -72.8634 C.3       5 UNK         0.0783 
     46 C46       -75.7487   23.7871  -71.3774 C.3       11 UNK        -0.0857 
     47 S47       -77.5142   24.1945  -71.1108 S.3       11 UNK        -0.2512 
     48 C48       -77.4230   25.6799  -70.0608 C.3       11 UNK         0.0225 
     49 N         -76.2174   22.5878  -73.5142 N.am      5 UNK        -0.4615 
     50 C         -76.0807   22.1067  -74.7560 C.2       4 UNK         0.5053 
     51 O         -75.1891   22.4537  -75.5305 O.2       4 UNK        -0.5105 
     52 CA        -77.1362   21.0947  -75.2353 C.3       4 UNK         0.0263 
     53 CB        -77.9102   20.4043  -74.0880 C.3       4 UNK        -0.1981 
     54 N         -78.0705   21.6930  -76.1961 N.am      4 UNK        -0.4224 
     55 C         -78.8564   22.7629  -76.0034 C.2       3 UNK         0.4895 
     56 O         -78.8631   23.4470  -74.9750 O.2       3 UNK        -0.5091 
     57 CA        -79.8054   23.1182  -77.1565 C.3       3 UNK         0.0250 
     58 CB        -80.8087   21.9810  -77.4383 C.3       3 UNK        -0.1996 
     59 N         -80.5318   24.3373  -76.8118 N.am      3 UNK        -0.4254 
     60 C         -81.0725   25.1992  -77.6794 C.2       2 UNK         0.5004 
     61 O         -81.0341   25.0512  -78.9019 O.2       2 UNK        -0.5226 
     62 CA        -81.7904   26.4138  -77.0686 C.3       2 UNK         0.0269 
     63 CB        -82.6271   27.2010  -78.0981 C.3       2 UNK        -0.1926 
     64 N         -82.6493   25.9785  -75.9604 N.am      2 UNK        -0.4687 
     65 C         -82.9380   26.6344  -74.8266 C.2       1 UNK         0.5165 
     66 O         -83.6697   26.1353  -73.9700 O.2       1 UNK        -0.5079 
     67 H67       -84.6231   30.2201  -72.1384 H         1 UNK         0.0900 
     68 H68       -86.0985   29.7765  -72.9991 H         1 UNK         0.0900 
     69 H69       -85.2227   31.2438  -73.4446 H         1 UNK         0.0900 
     70 H70       -82.8911   28.9451  -72.7568 H         1 UNK         0.2959 
     71 H71       -82.1956   28.5385  -75.5125 H         1 UNK         0.1079 
     72 H72       -80.3567   27.0150  -74.3673 H         1 UNK         0.0837 
     73 H73       -80.9847   27.6005  -72.8633 H         1 UNK         0.0837 
     74 H74       -80.1805   29.5752  -71.7660 H         1 UNK         0.0685 
     75 H75       -79.0812   30.7667  -72.4015 H         1 UNK         0.0685 
     76 H76       -79.3276   27.3585  -71.0556 H         1 UNK         0.1434 
     77 H77       -75.0771   26.8308  -70.8497 H         1 UNK         0.1329 
     78 H78       -76.7146   30.1855  -72.9494 H         1 UNK         0.1335 
     79 H79       -73.6149   28.2379  -72.0349 H         1 UNK         0.0680 
     80 H80       -74.2743   29.1493  -73.3747 H         1 UNK         0.0680 
     81 H81       -71.7254   31.1055  -70.6989 H         1 UNK         0.1032 
     82 H82       -71.6984   29.5884  -71.5480 H         1 UNK         0.1032 
     83 H83       -72.0633   32.3270  -72.8805 H         1 UNK         0.0461 
     84 H84       -68.2451   31.1224  -73.5323 H         1 UNK         0.3453 
     85 H85       -69.5769   30.2737  -74.2816 H         1 UNK         0.3453 
     86 H86       -72.2436   29.6586  -73.9745 H         1 UNK         0.2984 
     87 H87       -73.4096   30.2299  -76.6473 H         1 UNK         0.0554 
     88 H88       -71.8549   29.8059  -78.5704 H         1 UNK         0.0847 
     89 H89       -70.5238   30.4984  -77.6447 H         1 UNK         0.0847 
     90 H90       -71.8872   31.5009  -78.1178 H         1 UNK         0.0847 
     91 H91       -72.9110   28.1287  -76.2299 H         1 UNK         0.3141 
     92 H92       -70.0308   26.2429  -75.7768 H         1 UNK         0.0743 
     93 H93       -70.0709   26.9552  -73.3927 H         1 UNK         0.0784 
     94 H94       -71.8275   26.8967  -73.3750 H         1 UNK         0.0784 
     95 H95       -70.8943   25.4161  -73.5819 H         1 UNK         0.0784 
     96 H96       -72.8445   25.7200  -75.3065 H         1 UNK         0.3213 
     97 H97       -73.8599   25.5975  -78.6254 H         1 UNK         0.0855 
     98 H98       -73.0998   23.0181  -77.1513 H         1 UNK         0.0814 
     99 H99       -72.6604   23.4332  -78.8011 H         1 UNK         0.0814 
    100 H100      -74.3453   23.1523  -78.3928 H         1 UNK         0.0814 
    101 H101      -75.0429   24.4115  -76.3253 H         1 UNK         0.3105 
    102 H102      -76.1985   27.3120  -74.6911 H         1 UNK         0.0547 
    103 H103      -77.7828   27.4235  -76.5673 H         1 UNK         0.0837 
    104 H104      -77.7951   25.6710  -76.7316 H         1 UNK         0.0837 
    105 H105      -78.4791   26.4285  -75.2987 H         1 UNK         0.0837 
    106 H106      -77.0884   24.6492  -74.4410 H         1 UNK         0.3020 
    107 H107      -74.3490   23.1651  -72.8772 H         1 UNK         0.1245 
    108 H108      -75.1077   24.5362  -70.9117 H         1 UNK         0.0781 
    109 H109      -75.5482   22.8656  -70.8287 H         1 UNK         0.0781 
    110 H110      -76.6262   25.5695  -69.3236 H         1 UNK         0.0836 
    111 H111      -78.3486   25.7552  -69.4881 H         1 UNK         0.0836 
    112 H112      -77.0222   22.2957  -72.9785 H         1 UNK         0.3022 
    113 H113      -76.5883   20.3196  -75.7735 H         1 UNK         0.0747 
    114 H114      -78.5508   19.6117  -74.4748 H         1 UNK         0.0793 
    115 H115      -77.2275   19.9409  -73.3744 H         1 UNK         0.0793 
    116 H116      -78.5478   21.0970  -73.5373 H         1 UNK         0.0793 
    117 H117      -78.1137   21.2310  -77.0938 H         1 UNK         0.3047 
    118 H118      -79.1966   23.3014  -78.0447 H         1 UNK         0.0822 
    119 H119      -80.3022   21.0628  -77.7370 H         1 UNK         0.0807 
    120 H120      -81.4902   22.2435  -78.2477 H         1 UNK         0.0807 
    121 H121      -81.4109   21.7512  -76.5582 H         1 UNK         0.0807 
    122 H122      -80.5496   24.5371  -75.8190 H         1 UNK         0.2946 
    123 H123      -80.9878   27.0600  -76.7103 H         1 UNK         0.1144 
    124 H124      -82.0015   27.5698  -78.9121 H         1 UNK         0.0793 
    125 H125      -83.1146   28.0670  -77.6508 H         1 UNK         0.0793 
    126 H126      -83.4044   26.5771  -78.5409 H         1 UNK         0.0793 
    127 H127      -83.0576   25.0621  -76.0853 H         1 UNK         0.2896 
@<TRIPOS>BOND
     1    1    2 1    
     2    1   67 1    
     3    1   68 1    
     4    1   69 1    
     5    2    3 2    
     6    2    4 am   BACKBONE|DICT|INTERRES
     7    4    5 1    
     8    4   70 1    
     9    5    6 1    
    10    5   65 1    
    11    5   71 1    
    12    6    7 1    
    13    6   72 1    
    14    6   73 1    
    15    7    8 1    
    16    8    9 1    
    17    8   74 1    
    18    8   75 1    
    19    9   10 ar   
    20    9   14 ar   
    21   10   11 ar   
    22   10   76 1    
    23   11   12 ar   
    24   11   48 1    
    25   12   13 ar   
    26   12   77 1    
    27   13   14 ar   
    28   13   15 1    
    29   14   78 1    
    30   15   16 1    
    31   15   79 1    
    32   15   80 1    
    33   16   17 1    
    34   17   18 1    
    35   17   81 1    
    36   17   82 1    
    37   18   19 1    
    38   18   22 1    
    39   18   83 1    
    40   19   20 am   BACKBONE|DICT|INTERRES
    41   19   21 2    
    42   20   84 1    
    43   20   85 1    
    44   22   23 am   BACKBONE|DICT|INTERRES
    45   22   86 1    
    46   23   24 2    
    47   23   25 1    
    48   25   26 1    
    49   25   27 1    
    50   25   87 1    
    51   26   88 1    
    52   26   89 1    
    53   26   90 1    
    54   27   28 am   BACKBONE|DICT|INTERRES
    55   27   91 1    
    56   28   29 2    
    57   28   30 1    
    58   30   31 1    
    59   30   32 1    
    60   30   92 1    
    61   31   93 1    
    62   31   94 1    
    63   31   95 1    
    64   32   33 am   BACKBONE|DICT|INTERRES
    65   32   96 1    
    66   33   34 2    
    67   33   35 1    
    68   35   36 1    
    69   35   37 1    
    70   35   97 1    
    71   36   98 1    
    72   36   99 1    
    73   36  100 1    
    74   37   38 am   BACKBONE|DICT|INTERRES
    75   37  101 1    
    76   38   39 2    
    77   38   40 1    
    78   40   41 1    
    79   40   42 1    
    80   40  102 1    
    81   41  103 1    
    82   41  104 1    
    83   41  105 1    
    84   42   43 am   BACKBONE|DICT|INTERRES
    85   42  106 1    
    86   43   44 2    
    87   43   45 1    
    88   45   46 1    
    89   45   49 1    
    90   45  107 1    
    91   46   47 1    
    92   46  108 1    
    93   46  109 1    
    94   47   48 1    
    95   48  110 1    
    96   48  111 1    
    97   49   50 am   BACKBONE|DICT|INTERRES
    98   49  112 1    
    99   50   51 2    
   100   50   52 1    
   101   52   53 1    
   102   52   54 1    
   103   52  113 1    
   104   53  114 1    
   105   53  115 1    
   106   53  116 1    
   107   54   55 am   BACKBONE|DICT|INTERRES
   108   54  117 1    
   109   55   56 2    
   110   55   57 1    
   111   57   58 1    
   112   57   59 1    
   113   57  118 1    
   114   58  119 1    
   115   58  120 1    
   116   58  121 1    
   117   59   60 am   BACKBONE|DICT|INTERRES
   118   59  122 1    
   119   60   61 2    
   120   60   62 1    
   121   62   63 1    
   122   62   64 1    
   123   62  123 1    
   124   63  124 1    
   125   63  125 1    
   126   63  126 1    
   127   64   65 am   BACKBONE|DICT|INTERRES
   128   64  127 1    
   129   65   66 2    
@<TRIPOS>SUBSTRUCTURE
     1 UNK         1 GROUP             0       ****    0 ROOT    
