@<TRIPOS>MOLECULE
3R135
127   129    1
SMALL
USER_CHARGES


@<TRIPOS>ATOM
      1 CA        -79.2576   30.9101  -75.4213 C.3       0 UNK        -0.1998 
      2 C         -79.3930   29.6148  -74.6355 C.2       0 UNK         0.4909 
      3 O         -78.4838   28.7876  -74.6662 O.2       0 UNK        -0.5240 
      4 N         -80.5192   29.4374  -73.9317 N.am      1 UNK        -0.4739 
      5 CA        -80.8292   28.2362  -73.1487 C.3       1 UNK         0.0864 
      6 C6        -82.0033   28.4556  -72.1572 C.3       11 UNK        -0.0881 
      7 S7        -81.8346   29.9294  -71.0939 S.3       11 UNK        -0.2682 
      8 C8        -80.9434   29.2650  -69.6502 C.3       11 UNK         0.0289 
      9 C9        -79.4674   29.0501  -69.9510 C.ar      11 UNK        -0.0687 
     10 C10       -78.9145   27.7658  -69.9373 C.ar      11 UNK        -0.0823 
     11 C11       -77.5618   27.5741  -70.2389 C.ar      11 UNK        -0.0830 
     12 C12       -76.7577   28.6798  -70.5370 C.ar      11 UNK        -0.1021 
     13 C13       -77.2999   29.9673  -70.5472 C.ar      11 UNK        -0.0753 
     14 C14       -78.6524   30.1461  -70.2484 C.ar      11 UNK        -0.0933 
     15 C15       -76.4317   31.1688  -70.8805 C.3       11 UNK         0.0166 
     16 S16       -76.4174   31.4927  -72.6743 S.3       11 UNK        -0.2615 
     17 C17       -74.6735   31.2001  -73.1345 C.3       11 UNK        -0.0865 
     18 CA        -74.4723   30.0324  -74.1504 C.3       10 UNK         0.0862 
     19 C         -74.6677   30.4618  -75.6396 C.2       10 UNK         0.5551 
     20 N         -73.8848   29.9530  -76.5849 N.am      10 UNK        -0.7319 
     21 O         -75.5484   31.2577  -75.9541 O.2       10 UNK        -0.5018 
     22 N         -73.2230   29.2873  -73.9092 N.am      10 UNK        -0.4509 
     23 C         -71.9924   29.8205  -73.8794 C.2       10 UNK         0.4899 
     24 O         -71.7630   31.0272  -73.9649 O.2       10 UNK        -0.4839 
     25 CA        -70.8006   28.8585  -73.7251 C.3       9 UNK         0.0222 
     26 CB        -70.3749   28.7747  -72.2499 C.3       9 UNK        -0.1966 
     27 N         -71.0179   27.5030  -74.2404 N.am      9 UNK        -0.4218 
     28 C         -71.2939   27.1806  -75.5119 C.2       9 UNK         0.5020 
     29 O         -71.4810   28.0154  -76.4002 O.2       9 UNK        -0.5274 
     30 CA        -71.3502   25.6810  -75.8532 C.3       8 UNK         0.0270 
     31 CB        -71.5251   24.7632  -74.6246 C.3       8 UNK        -0.1976 
     32 N         -72.4541   25.4409  -76.7771 N.am      8 UNK        -0.4313 
     33 C         -72.3521   24.9209  -78.0061 C.2       8 UNK         0.5041 
     34 O         -71.2832   24.5728  -78.5120 O.2       8 UNK        -0.5577 
     35 CA        -73.6508   24.7219  -78.8146 C.3       7 UNK         0.0284 
     36 CB        -73.9390   23.2224  -79.0004 C.3       7 UNK        -0.1958 
     37 N         -74.8251   25.3555  -78.2098 N.am      7 UNK        -0.4454 
     38 C         -75.0841   26.6697  -78.2298 C.2       7 UNK         0.5089 
     39 O         -74.4117   27.4899  -78.8541 O.2       7 UNK        -0.5125 
     40 CA        -76.2763   27.1521  -77.3851 C.3       6 UNK         0.0408 
     41 CB        -77.5706   27.1356  -78.2116 C.3       6 UNK        -0.1791 
     42 N         -76.4784   26.3735  -76.1610 N.am      6 UNK        -0.4762 
     43 C         -75.6101   26.2696  -75.1442 C.2       6 UNK         0.5007 
     44 O         -74.5018   26.8033  -75.1231 O.2       6 UNK        -0.5032 
     45 CA        -76.0411   25.3807  -73.9673 C.3       5 UNK         0.0783 
     46 C46       -77.0665   26.1311  -73.0866 C.3       11 UNK        -0.0857 
     47 S47       -77.6185   25.1727  -71.6367 S.3       11 UNK        -0.2512 
     48 C48       -76.9707   26.1704  -70.2562 C.3       11 UNK         0.0225 
     49 N         -76.5423   24.0998  -74.4702 N.am      5 UNK        -0.4615 
     50 C         -75.7644   23.1078  -74.9238 C.2       4 UNK         0.5053 
     51 O         -74.5352   23.1386  -74.8956 O.2       4 UNK        -0.5105 
     52 CA        -76.4665   21.8731  -75.5185 C.3       4 UNK         0.0263 
     53 CB        -76.6555   20.7953  -74.4392 C.3       4 UNK        -0.1981 
     54 N         -77.7629   22.1769  -76.1291 N.am      4 UNK        -0.4224 
     55 C         -77.9307   22.9088  -77.2401 C.2       3 UNK         0.4895 
     56 O         -77.0037   23.3690  -77.9052 O.2       3 UNK        -0.5091 
     57 CA        -79.3832   23.2376  -77.6349 C.3       3 UNK         0.0250 
     58 CB        -79.9888   22.0989  -78.4706 C.3       3 UNK        -0.1996 
     59 N         -80.2515   23.5257  -76.4841 N.am      3 UNK        -0.4254 
     60 C         -80.0141   24.4936  -75.5875 C.2       2 UNK         0.5004 
     61 O         -79.0380   25.2417  -75.6506 O.2       2 UNK        -0.5226 
     62 CA        -80.9764   24.5878  -74.3905 C.3       2 UNK         0.0269 
     63 CB        -80.7586   23.4024  -73.4338 C.3       2 UNK        -0.1926 
     64 N         -80.7921   25.8313  -73.6357 N.am      2 UNK        -0.4687 
     65 C         -81.1529   27.0445  -74.0739 C.2       1 UNK         0.5165 
     66 O         -81.7716   27.2339  -75.1256 O.2       1 UNK        -0.5079 
     67 H67       -80.1031   31.5780  -75.2582 H         1 UNK         0.0900 
     68 H68       -79.1910   30.6950  -76.4873 H         1 UNK         0.0900 
     69 H69       -78.3488   31.4333  -75.1243 H         1 UNK         0.0900 
     70 H70       -81.2386   30.1453  -73.9449 H         1 UNK         0.2959 
     71 H71       -79.9330   27.9853  -72.5778 H         1 UNK         0.1079 
     72 H72       -82.9418   28.5677  -72.7044 H         1 UNK         0.0837 
     73 H73       -82.1345   27.5772  -71.5222 H         1 UNK         0.0837 
     74 H74       -81.0341   29.9743  -68.8264 H         1 UNK         0.0685 
     75 H75       -81.4198   28.3429  -69.3138 H         1 UNK         0.0685 
     76 H76       -79.5370   26.9111  -69.7099 H         1 UNK         0.1434 
     77 H77       -75.7121   28.5407  -70.7761 H         1 UNK         0.1329 
     78 H78       -79.0789   31.1399  -70.2638 H         1 UNK         0.1335 
     79 H79       -76.8166   32.0552  -70.3739 H         1 UNK         0.0680 
     80 H80       -75.4259   31.0197  -70.4876 H         1 UNK         0.0680 
     81 H81       -74.1020   31.0029  -72.2279 H         1 UNK         0.1032 
     82 H82       -74.2583   32.1296  -73.5285 H         1 UNK         0.1032 
     83 H83       -75.2580   29.2981  -73.9676 H         1 UNK         0.0461 
     84 H84       -74.0299   30.2221  -77.5442 H         1 UNK         0.3453 
     85 H85       -73.1604   29.2819  -76.3575 H         1 UNK         0.3453 
     86 H86       -73.3168   28.2796  -73.9214 H         1 UNK         0.2984 
     87 H87       -69.9707   29.2860  -74.2917 H         1 UNK         0.0554 
     88 H88       -69.4622   28.1906  -72.1301 H         1 UNK         0.0847 
     89 H89       -71.1501   28.3211  -71.6309 H         1 UNK         0.0847 
     90 H90       -70.1750   29.7674  -71.8438 H         1 UNK         0.0847 
     91 H91       -70.8954   26.7477  -73.5815 H         1 UNK         0.3141 
     92 H92       -70.3973   25.4373  -76.3268 H         1 UNK         0.0743 
     93 H93       -70.6670   24.8167  -73.9538 H         1 UNK         0.0784 
     94 H94       -72.4209   25.0141  -74.0543 H         1 UNK         0.0784 
     95 H95       -71.6189   23.7205  -74.9297 H         1 UNK         0.0784 
     96 H96       -73.3564   25.7801  -76.4604 H         1 UNK         0.3213 
     97 H97       -73.4891   25.1638  -79.8001 H         1 UNK         0.0855 
     98 H98       -73.0987   22.7157  -79.4770 H         1 UNK         0.0814 
     99 H99       -74.8127   23.0616  -79.6322 H         1 UNK         0.0814 
    100 H100      -74.1205   22.7279  -78.0451 H         1 UNK         0.0814 
    101 H101      -75.4891   24.7402  -77.7497 H         1 UNK         0.3105 
    102 H102      -76.0792   28.1825  -77.0857 H         1 UNK         0.0547 
    103 H103      -77.4695   27.7479  -79.1085 H         1 UNK         0.0837 
    104 H104      -77.8306   26.1257  -78.5303 H         1 UNK         0.0837 
    105 H105      -78.4092   27.5323  -77.6383 H         1 UNK         0.0837 
    106 H106      -77.3890   25.9274  -76.0541 H         1 UNK         0.3020 
    107 H107      -75.1533   25.1877  -73.3605 H         1 UNK         0.1245 
    108 H108      -77.9542   26.3947  -73.6598 H         1 UNK         0.0781 
    109 H109      -76.6429   27.0821  -72.7635 H         1 UNK         0.0781 
    110 H110      -75.8820   26.2048  -70.3204 H         1 UNK         0.0836 
    111 H111      -77.2056   25.6695  -69.3160 H         1 UNK         0.0836 
    112 H112      -77.5438   24.0365  -74.5868 H         1 UNK         0.3022 
    113 H113      -75.8151   21.4691  -76.2967 H         1 UNK         0.0747 
    114 H114      -77.0790   19.8825  -74.8585 H         1 UNK         0.0793 
    115 H115      -75.7003   20.5280  -73.9847 H         1 UNK         0.0793 
    116 H116      -77.3131   21.1359  -73.6381 H         1 UNK         0.0793 
    117 H117      -78.5844   21.8393  -75.6496 H         1 UNK         0.3047 
    118 H118      -79.3549   24.1362  -78.2546 H         1 UNK         0.0822 
    119 H119      -80.9791   22.3626  -78.8425 H         1 UNK         0.0807 
    120 H120      -80.0799   21.1766  -77.8954 H         1 UNK         0.0807 
    121 H121      -79.3667   21.8806  -79.3400 H         1 UNK         0.0807 
    122 H122      -81.0670   22.9401  -76.3720 H         1 UNK         0.2946 
    123 H123      -82.0000   24.5601  -74.7713 H         1 UNK         0.1144 
    124 H124      -81.4299   23.4572  -72.5764 H         1 UNK         0.0793 
    125 H125      -79.7362   23.3700  -73.0549 H         1 UNK         0.0793 
    126 H126      -80.9529   22.4501  -73.9287 H         1 UNK         0.0793 
    127 H127      -80.2675   25.7566  -72.7761 H         1 UNK         0.2896 
@<TRIPOS>BOND
     1    1    2 1    
     2    1   67 1    
     3    1   68 1    
     4    1   69 1    
     5    2    3 2    
     6    2    4 am   BACKBONE|DICT|INTERRES
     7    4    5 1    
     8    4   70 1    
     9    5    6 1    
    10    5   65 1    
    11    5   71 1    
    12    6    7 1    
    13    6   72 1    
    14    6   73 1    
    15    7    8 1    
    16    8    9 1    
    17    8   74 1    
    18    8   75 1    
    19    9   10 ar   
    20    9   14 ar   
    21   10   11 ar   
    22   10   76 1    
    23   11   12 ar   
    24   11   48 1    
    25   12   13 ar   
    26   12   77 1    
    27   13   14 ar   
    28   13   15 1    
    29   14   78 1    
    30   15   16 1    
    31   15   79 1    
    32   15   80 1    
    33   16   17 1    
    34   17   18 1    
    35   17   81 1    
    36   17   82 1    
    37   18   19 1    
    38   18   22 1    
    39   18   83 1    
    40   19   20 am   BACKBONE|DICT|INTERRES
    41   19   21 2    
    42   20   84 1    
    43   20   85 1    
    44   22   23 am   BACKBONE|DICT|INTERRES
    45   22   86 1    
    46   23   24 2    
    47   23   25 1    
    48   25   26 1    
    49   25   27 1    
    50   25   87 1    
    51   26   88 1    
    52   26   89 1    
    53   26   90 1    
    54   27   28 am   BACKBONE|DICT|INTERRES
    55   27   91 1    
    56   28   29 2    
    57   28   30 1    
    58   30   31 1    
    59   30   32 1    
    60   30   92 1    
    61   31   93 1    
    62   31   94 1    
    63   31   95 1    
    64   32   33 am   BACKBONE|DICT|INTERRES
    65   32   96 1    
    66   33   34 2    
    67   33   35 1    
    68   35   36 1    
    69   35   37 1    
    70   35   97 1    
    71   36   98 1    
    72   36   99 1    
    73   36  100 1    
    74   37   38 am   BACKBONE|DICT|INTERRES
    75   37  101 1    
    76   38   39 2    
    77   38   40 1    
    78   40   41 1    
    79   40   42 1    
    80   40  102 1    
    81   41  103 1    
    82   41  104 1    
    83   41  105 1    
    84   42   43 am   BACKBONE|DICT|INTERRES
    85   42  106 1    
    86   43   44 2    
    87   43   45 1    
    88   45   46 1    
    89   45   49 1    
    90   45  107 1    
    91   46   47 1    
    92   46  108 1    
    93   46  109 1    
    94   47   48 1    
    95   48  110 1    
    96   48  111 1    
    97   49   50 am   BACKBONE|DICT|INTERRES
    98   49  112 1    
    99   50   51 2    
   100   50   52 1    
   101   52   53 1    
   102   52   54 1    
   103   52  113 1    
   104   53  114 1    
   105   53  115 1    
   106   53  116 1    
   107   54   55 am   BACKBONE|DICT|INTERRES
   108   54  117 1    
   109   55   56 2    
   110   55   57 1    
   111   57   58 1    
   112   57   59 1    
   113   57  118 1    
   114   58  119 1    
   115   58  120 1    
   116   58  121 1    
   117   59   60 am   BACKBONE|DICT|INTERRES
   118   59  122 1    
   119   60   61 2    
   120   60   62 1    
   121   62   63 1    
   122   62   64 1    
   123   62  123 1    
   124   63  124 1    
   125   63  125 1    
   126   63  126 1    
   127   64   65 am   BACKBONE|DICT|INTERRES
   128   64  127 1    
   129   65   66 2    
@<TRIPOS>SUBSTRUCTURE
     1 UNK         1 GROUP             0       ****    0 ROOT    
