@<TRIPOS>MOLECULE
3R135
127   129    1
SMALL
USER_CHARGES


@<TRIPOS>ATOM
      1 CA        -86.2693   29.2897  -74.0253 C.3       0 UNK        -0.1998 
      2 C         -84.9084   28.8412  -74.5369 C.2       0 UNK         0.4909 
      3 O         -84.7858   28.4661  -75.7040 O.2       0 UNK        -0.5240 
      4 N         -83.8844   28.8867  -73.6763 N.am      1 UNK        -0.4739 
      5 CA        -82.5230   28.4247  -73.9657 C.3       1 UNK         0.0864 
      6 C6        -81.4770   29.1298  -73.0639 C.3       11 UNK        -0.0881 
      7 S7        -81.7574   28.9220  -71.2712 S.3       11 UNK        -0.2682 
      8 C8        -80.4620   30.0097  -70.5944 C.3       11 UNK         0.0289 
      9 C9        -79.0651   29.5169  -70.9463 C.ar      11 UNK        -0.0687 
     10 C10       -78.5668   28.3522  -70.3558 C.ar      11 UNK        -0.0823 
     11 C11       -77.2944   27.8729  -70.6797 C.ar      11 UNK        -0.0830 
     12 C12       -76.5153   28.5859  -71.5990 C.ar      11 UNK        -0.1021 
     13 C13       -76.9951   29.7589  -72.1900 C.ar      11 UNK        -0.0753 
     14 C14       -78.2734   30.2191  -71.8609 C.ar      11 UNK        -0.0933 
     15 C15       -76.1400   30.5056  -73.2048 C.3       11 UNK         0.0166 
     16 S16       -74.5120   30.9516  -72.5229 S.3       11 UNK        -0.2615 
     17 C17       -73.6178   31.5040  -74.0185 C.3       11 UNK        -0.0865 
     18 CA        -73.2314   30.3664  -75.0181 C.3       10 UNK         0.0862 
     19 C         -72.3773   30.8909  -76.2135 C.2       10 UNK         0.5551 
     20 N         -72.8214   31.9510  -76.8775 N.am      10 UNK        -0.7319 
     21 O         -71.3297   30.3515  -76.5654 O.2       10 UNK        -0.5018 
     22 N         -72.6772   29.1689  -74.3627 N.am      10 UNK        -0.4509 
     23 C         -71.5554   29.1106  -73.6336 C.2       10 UNK         0.4899 
     24 O         -70.8132   30.0700  -73.4191 O.2       10 UNK        -0.4839 
     25 CA        -71.2088   27.7521  -73.0125 C.3       9 UNK         0.0222 
     26 CB        -71.9989   27.5511  -71.7072 C.3       9 UNK        -0.1966 
     27 N         -71.4953   26.6406  -73.9236 N.am      9 UNK        -0.4218 
     28 C         -70.5626   25.9017  -74.5369 C.2       9 UNK         0.5020 
     29 O         -69.3526   26.1258  -74.4708 O.2       9 UNK        -0.5274 
     30 CA        -71.0470   24.6672  -75.3139 C.3       8 UNK         0.0270 
     31 CB        -71.4350   23.5410  -74.3408 C.3       8 UNK        -0.1976 
     32 N         -72.1579   24.9299  -76.2315 N.am      8 UNK        -0.4313 
     33 C         -72.0312   25.5640  -77.4059 C.2       8 UNK         0.5041 
     34 O         -70.9823   26.0766  -77.7983 O.2       8 UNK        -0.5577 
     35 CA        -73.2696   25.5992  -78.3185 C.3       7 UNK         0.0284 
     36 CB        -73.5065   24.2304  -78.9782 C.3       7 UNK        -0.1958 
     37 N         -74.4744   26.0163  -77.6036 N.am      7 UNK        -0.4454 
     38 C         -74.7373   27.2825  -77.2553 C.2       7 UNK         0.5089 
     39 O         -74.0428   28.2426  -77.5845 O.2       7 UNK        -0.5125 
     40 CA        -75.9709   27.5228  -76.3680 C.3       6 UNK         0.0408 
     41 CB        -77.2279   27.7311  -77.2253 C.3       6 UNK        -0.1791 
     42 N         -76.2033   26.4510  -75.3981 N.am      6 UNK        -0.4762 
     43 C         -75.3474   26.0910  -74.4303 C.2       6 UNK         0.5007 
     44 O         -74.2845   26.6741  -74.2122 O.2       6 UNK        -0.5032 
     45 CA        -75.6961   24.8223  -73.6264 C.3       5 UNK         0.0783 
     46 C46       -76.5840   25.1196  -72.3949 C.3       11 UNK        -0.0857 
     47 S47       -75.5799   25.6335  -70.9630 S.3       11 UNK        -0.2512 
     48 C48       -76.7889   26.6015  -69.9981 C.3       11 UNK         0.0225 
     49 N         -76.2772   23.7847  -74.4814 N.am      5 UNK        -0.4615 
     50 C         -75.5813   23.0894  -75.3901 C.2       4 UNK         0.5053 
     51 O         -74.3836   23.2622  -75.6096 O.2       4 UNK        -0.5105 
     52 CA        -76.3595   22.0547  -76.2163 C.3       4 UNK         0.0263 
     53 CB        -76.5658   20.7605  -75.4136 C.3       4 UNK        -0.1981 
     54 N         -77.6522   22.5660  -76.6749 N.am      4 UNK        -0.4224 
     55 C         -77.7929   23.5647  -77.5574 C.2       3 UNK         0.4895 
     56 O         -76.8495   24.1417  -78.0988 O.2       3 UNK        -0.5091 
     57 CA        -79.2303   24.0189  -77.8600 C.3       3 UNK         0.0250 
     58 CB        -79.8684   23.1158  -78.9279 C.3       3 UNK        -0.1996 
     59 N         -80.1051   24.0850  -76.6813 N.am      3 UNK        -0.4254 
     60 C         -79.8781   24.8567  -75.6096 C.2       2 UNK         0.5004 
     61 O         -78.8500   25.5135  -75.4389 O.2       2 UNK        -0.5226 
     62 CA        -80.9792   24.9450  -74.5533 C.3       2 UNK         0.0269 
     63 CB        -80.5218   24.3328  -73.2163 C.3       2 UNK        -0.1926 
     64 N         -81.2739   26.3646  -74.3923 N.am      2 UNK        -0.4687 
     65 C         -82.4128   26.8820  -73.9218 C.2       1 UNK         0.5165 
     66 O         -83.3386   26.1946  -73.4800 O.2       1 UNK        -0.5079 
     67 H67       -86.2279   29.6099  -72.9843 H         1 UNK         0.0900 
     68 H68       -86.9857   28.4720  -74.1002 H         1 UNK         0.0900 
     69 H69       -86.6389   30.1233  -74.6219 H         1 UNK         0.0900 
     70 H70       -84.0443   29.1685  -72.7192 H         1 UNK         0.2959 
     71 H71       -82.2960   28.7101  -74.9958 H         1 UNK         0.1079 
     72 H72       -80.4688   28.7882  -73.3050 H         1 UNK         0.0837 
     73 H73       -81.4808   30.1989  -73.2827 H         1 UNK         0.0837 
     74 H74       -80.6203   31.0270  -70.9560 H         1 UNK         0.0685 
     75 H75       -80.5662   30.0509  -69.5093 H         1 UNK         0.0685 
     76 H76       -79.1812   27.8142  -69.6465 H         1 UNK         0.1434 
     77 H77       -75.5256   28.2378  -71.8600 H         1 UNK         0.1329 
     78 H78       -78.6558   31.1197  -72.3215 H         1 UNK         0.1335 
     79 H79       -76.0100   29.8642  -74.0738 H         1 UNK         0.0680 
     80 H80       -76.6405   31.4105  -73.5523 H         1 UNK         0.0680 
     81 H81       -72.7184   32.0242  -73.6840 H         1 UNK         0.1032 
     82 H82       -74.2289   32.2603  -74.5129 H         1 UNK         0.1032 
     83 H83       -74.1526   30.0163  -75.4789 H         1 UNK         0.0461 
     84 H84       -72.2828   32.2948  -77.6572 H         1 UNK         0.3453 
     85 H85       -73.6896   32.4009  -76.6357 H         1 UNK         0.3453 
     86 H86       -73.2269   28.3229  -74.4634 H         1 UNK         0.2984 
     87 H87       -70.1476   27.7689  -72.7556 H         1 UNK         0.0554 
     88 H88       -71.7265   26.6159  -71.2182 H         1 UNK         0.0847 
     89 H89       -73.0755   27.5349  -71.8814 H         1 UNK         0.0847 
     90 H90       -71.7976   28.3579  -71.0012 H         1 UNK         0.0847 
     91 H91       -72.4789   26.4248  -74.0722 H         1 UNK         0.3141 
     92 H92       -70.2048   24.3075  -75.9093 H         1 UNK         0.0743 
     93 H93       -70.6127   23.3090  -73.6625 H         1 UNK         0.0784 
     94 H94       -72.2963   23.8120  -73.7293 H         1 UNK         0.0784 
     95 H95       -71.6815   22.6235  -74.8756 H         1 UNK         0.0784 
     96 H96       -73.0444   24.4799  -76.0107 H         1 UNK         0.3213 
     97 H97       -73.0745   26.3216  -79.1144 H         1 UNK         0.0855 
     98 H98       -72.6246   23.9068  -79.5324 H         1 UNK         0.0814 
     99 H99       -74.3366   24.2711  -79.6838 H         1 UNK         0.0814 
    100 H100      -73.7335   23.4565  -78.2445 H         1 UNK         0.0814 
    101 H101      -75.1396   25.2942  -77.3521 H         1 UNK         0.3105 
    102 H102      -75.7973   28.4379  -75.8049 H         1 UNK         0.0547 
    103 H103      -77.0865   28.5482  -77.9338 H         1 UNK         0.0837 
    104 H104      -77.4749   26.8389  -77.8005 H         1 UNK         0.0837 
    105 H105      -78.0911   27.9818  -76.6087 H         1 UNK         0.0837 
    106 H106      -77.0902   25.9544  -75.4770 H         1 UNK         0.3020 
    107 H107      -74.7472   24.4176  -73.2655 H         1 UNK         0.1245 
    108 H108      -77.1251   24.2227  -72.0889 H         1 UNK         0.0781 
    109 H109      -77.3474   25.8656  -72.6250 H         1 UNK         0.0781 
    110 H110      -76.3279   26.8812  -69.0501 H         1 UNK         0.0836 
    111 H111      -77.6280   25.9485  -69.7523 H         1 UNK         0.0836 
    112 H112      -77.2713   23.6317  -74.4031 H         1 UNK         0.3022 
    113 H113      -75.7591   21.8169  -77.0974 H         1 UNK         0.0747 
    114 H114      -77.0425   19.9901  -76.0201 H         1 UNK         0.0793 
    115 H115      -75.6107   20.3573  -75.0738 H         1 UNK         0.0793 
    116 H116      -77.1840   20.9227  -74.5297 H         1 UNK         0.0793 
    117 H117      -78.4831   22.1490  -76.2814 H         1 UNK         0.3047 
    118 H118      -79.1664   25.0290  -78.2698 H         1 UNK         0.0822 
    119 H119      -80.8410   23.4965  -79.2406 H         1 UNK         0.0807 
    120 H120      -80.0065   22.0956  -78.5677 H         1 UNK         0.0807 
    121 H121      -79.2423   23.0644  -79.8201 H         1 UNK         0.0807 
    122 H122      -80.9748   23.5743  -76.7395 H         1 UNK         0.2946 
    123 H123      -81.8716   24.4241  -74.9081 H         1 UNK         0.1144 
    124 H124      -80.2448   23.2851  -73.3387 H         1 UNK         0.0793 
    125 H125      -81.3158   24.3727  -72.4705 H         1 UNK         0.0793 
    126 H126      -79.6576   24.8575  -72.8079 H         1 UNK         0.0793 
    127 H127      -80.5454   26.9763  -74.7386 H         1 UNK         0.2896 
@<TRIPOS>BOND
     1    1    2 1    
     2    1   67 1    
     3    1   68 1    
     4    1   69 1    
     5    2    3 2    
     6    2    4 am   BACKBONE|DICT|INTERRES
     7    4    5 1    
     8    4   70 1    
     9    5    6 1    
    10    5   65 1    
    11    5   71 1    
    12    6    7 1    
    13    6   72 1    
    14    6   73 1    
    15    7    8 1    
    16    8    9 1    
    17    8   74 1    
    18    8   75 1    
    19    9   10 ar   
    20    9   14 ar   
    21   10   11 ar   
    22   10   76 1    
    23   11   12 ar   
    24   11   48 1    
    25   12   13 ar   
    26   12   77 1    
    27   13   14 ar   
    28   13   15 1    
    29   14   78 1    
    30   15   16 1    
    31   15   79 1    
    32   15   80 1    
    33   16   17 1    
    34   17   18 1    
    35   17   81 1    
    36   17   82 1    
    37   18   19 1    
    38   18   22 1    
    39   18   83 1    
    40   19   20 am   BACKBONE|DICT|INTERRES
    41   19   21 2    
    42   20   84 1    
    43   20   85 1    
    44   22   23 am   BACKBONE|DICT|INTERRES
    45   22   86 1    
    46   23   24 2    
    47   23   25 1    
    48   25   26 1    
    49   25   27 1    
    50   25   87 1    
    51   26   88 1    
    52   26   89 1    
    53   26   90 1    
    54   27   28 am   BACKBONE|DICT|INTERRES
    55   27   91 1    
    56   28   29 2    
    57   28   30 1    
    58   30   31 1    
    59   30   32 1    
    60   30   92 1    
    61   31   93 1    
    62   31   94 1    
    63   31   95 1    
    64   32   33 am   BACKBONE|DICT|INTERRES
    65   32   96 1    
    66   33   34 2    
    67   33   35 1    
    68   35   36 1    
    69   35   37 1    
    70   35   97 1    
    71   36   98 1    
    72   36   99 1    
    73   36  100 1    
    74   37   38 am   BACKBONE|DICT|INTERRES
    75   37  101 1    
    76   38   39 2    
    77   38   40 1    
    78   40   41 1    
    79   40   42 1    
    80   40  102 1    
    81   41  103 1    
    82   41  104 1    
    83   41  105 1    
    84   42   43 am   BACKBONE|DICT|INTERRES
    85   42  106 1    
    86   43   44 2    
    87   43   45 1    
    88   45   46 1    
    89   45   49 1    
    90   45  107 1    
    91   46   47 1    
    92   46  108 1    
    93   46  109 1    
    94   47   48 1    
    95   48  110 1    
    96   48  111 1    
    97   49   50 am   BACKBONE|DICT|INTERRES
    98   49  112 1    
    99   50   51 2    
   100   50   52 1    
   101   52   53 1    
   102   52   54 1    
   103   52  113 1    
   104   53  114 1    
   105   53  115 1    
   106   53  116 1    
   107   54   55 am   BACKBONE|DICT|INTERRES
   108   54  117 1    
   109   55   56 2    
   110   55   57 1    
   111   57   58 1    
   112   57   59 1    
   113   57  118 1    
   114   58  119 1    
   115   58  120 1    
   116   58  121 1    
   117   59   60 am   BACKBONE|DICT|INTERRES
   118   59  122 1    
   119   60   61 2    
   120   60   62 1    
   121   62   63 1    
   122   62   64 1    
   123   62  123 1    
   124   63  124 1    
   125   63  125 1    
   126   63  126 1    
   127   64   65 am   BACKBONE|DICT|INTERRES
   128   64  127 1    
   129   65   66 2    
@<TRIPOS>SUBSTRUCTURE
     1 UNK         1 GROUP             0       ****    0 ROOT    
