@<TRIPOS>MOLECULE
3R135
127   129    1
SMALL
USER_CHARGES


@<TRIPOS>ATOM
      1 CA        -86.1904   28.7709  -74.4090 C.3       0 UNK        -0.1998 
      2 C         -84.8020   28.6247  -75.0138 C.2       0 UNK         0.4909 
      3 O         -84.6059   28.9545  -76.1844 O.2       0 UNK        -0.5240 
      4 N         -83.8354   28.1428  -74.2228 N.am      1 UNK        -0.4739 
      5 CA        -82.4538   27.8898  -74.6467 C.3       1 UNK         0.0864 
      6 C6        -81.5104   27.6693  -73.4360 C.3       11 UNK        -0.0881 
      7 S7        -81.4601   29.1145  -72.3217 S.3       11 UNK        -0.2682 
      8 C8        -79.8807   29.8997  -72.7988 C.3       11 UNK         0.0289 
      9 C9        -78.6392   29.3970  -72.0564 C.ar      11 UNK        -0.0687 
     10 C10       -78.5643   28.1274  -71.4651 C.ar      11 UNK        -0.0823 
     11 C11       -77.4052   27.7161  -70.7983 C.ar      11 UNK        -0.0830 
     12 C12       -76.3058   28.5741  -70.7340 C.ar      11 UNK        -0.1021 
     13 C13       -76.3613   29.8389  -71.3216 C.ar      11 UNK        -0.0753 
     14 C14       -77.5277   30.2431  -71.9774 C.ar      11 UNK        -0.0933 
     15 C15       -75.1614   30.7680  -71.2412 C.3       11 UNK         0.0166 
     16 S16       -74.3652   30.9315  -72.8651 S.3       11 UNK        -0.2615 
     17 C17       -72.6186   31.2043  -72.3976 C.3       11 UNK        -0.0865 
     18 CA        -71.7230   29.9524  -72.6289 C.3       10 UNK         0.0862 
     19 C         -71.8401   28.9075  -71.4853 C.2       10 UNK         0.5551 
     20 N         -72.1940   27.6562  -71.7426 N.am      10 UNK        -0.7319 
     21 O         -71.5692   29.2352  -70.3326 O.2       10 UNK        -0.5018 
     22 N         -71.8690   29.4173  -73.9937 N.am      10 UNK        -0.4509 
     23 C         -71.3249   29.9942  -75.0721 C.2       10 UNK         0.4899 
     24 O         -70.5079   30.9159  -75.0140 O.2       10 UNK        -0.4839 
     25 CA        -71.8140   29.4967  -76.4434 C.3       9 UNK         0.0222 
     26 CB        -71.0016   30.0656  -77.6273 C.3       9 UNK        -0.1966 
     27 N         -71.9223   28.0394  -76.5300 N.am      9 UNK        -0.4218 
     28 C         -70.9307   27.1380  -76.4648 C.2       9 UNK         0.5020 
     29 O         -69.7488   27.4320  -76.2784 O.2       9 UNK        -0.5274 
     30 CA        -71.3019   25.6507  -76.6406 C.3       8 UNK         0.0270 
     31 CB        -71.0001   24.8653  -75.3527 C.3       8 UNK        -0.1976 
     32 N         -72.6994   25.4237  -77.0248 N.am      8 UNK        -0.4313 
     33 C         -73.2301   25.6869  -78.2275 C.2       8 UNK         0.5041 
     34 O         -72.5727   26.0685  -79.1962 O.2       8 UNK        -0.5577 
     35 CA        -74.7596   25.5564  -78.3564 C.3       7 UNK         0.0284 
     36 CB        -75.1584   24.1125  -78.6975 C.3       7 UNK        -0.1958 
     37 N         -75.4775   25.9989  -77.1551 N.am      7 UNK        -0.4454 
     38 C         -75.4688   27.2518  -76.6751 C.2       7 UNK         0.5089 
     39 O         -74.8820   28.1868  -77.2175 O.2       7 UNK        -0.5125 
     40 CA        -76.1826   27.4905  -75.3348 C.3       6 UNK         0.0408 
     41 CB        -77.6952   27.6731  -75.5329 C.3       6 UNK        -0.1791 
     42 N         -75.9305   26.4036  -74.3889 N.am      6 UNK        -0.4762 
     43 C         -74.7498   26.1812  -73.7958 C.2       6 UNK         0.5007 
     44 O         -73.7570   26.8961  -73.9591 O.2       6 UNK        -0.5032 
     45 CA        -74.6417   24.9177  -72.9151 C.3       5 UNK         0.0783 
     46 C46       -75.1493   25.1604  -71.4691 C.3       11 UNK        -0.0857 
     47 S47       -76.9665   25.0234  -71.2875 S.3       11 UNK        -0.2512 
     48 C48       -77.3547   26.3577  -70.1173 C.3       11 UNK         0.0225 
     49 N         -75.2827   23.7482  -73.5245 N.am      5 UNK        -0.4615 
     50 C         -74.9119   23.1590  -74.6661 C.2       4 UNK         0.5053 
     51 O         -73.9306   23.5002  -75.3215 O.2       4 UNK        -0.5105 
     52 CA        -75.8180   22.0293  -75.1894 C.3       4 UNK         0.0263 
     53 CB        -75.4011   20.6821  -74.5791 C.3       4 UNK        -0.1981 
     54 N         -77.2504   22.2548  -74.9530 N.am      4 UNK        -0.4224 
     55 C         -77.9386   23.3227  -75.3807 C.2       3 UNK         0.4895 
     56 O         -77.4292   24.2532  -76.0100 O.2       3 UNK        -0.5091 
     57 CA        -79.4259   23.3789  -74.9946 C.3       3 UNK         0.0250 
     58 CB        -79.5931   23.6343  -73.4872 C.3       3 UNK        -0.1996 
     59 N         -80.1131   24.4507  -75.7111 N.am      3 UNK        -0.4254 
     60 C         -80.5699   24.3878  -76.9673 C.2       2 UNK         0.5004 
     61 O         -80.5394   23.3639  -77.6525 O.2       2 UNK        -0.5226 
     62 CA        -81.1384   25.6950  -77.5645 C.3       2 UNK         0.0269 
     63 CB        -82.3407   25.4390  -78.4990 C.3       2 UNK        -0.1926 
     64 N         -81.4548   26.7361  -76.5682 N.am      2 UNK        -0.4687 
     65 C         -82.3851   26.6792  -75.6010 C.2       1 UNK         0.5165 
     66 O         -83.1242   25.7102  -75.4100 O.2       1 UNK        -0.5079 
     67 H67       -86.5141   29.8102  -74.4591 H         1 UNK         0.0900 
     68 H68       -86.2152   28.4582  -73.3653 H         1 UNK         0.0900 
     69 H69       -86.9061   28.1634  -74.9622 H         1 UNK         0.0900 
     70 H70       -84.0527   27.8821  -73.2717 H         1 UNK         0.2959 
     71 H71       -82.1114   28.7714  -75.1937 H         1 UNK         0.1079 
     72 H72       -81.8328   26.8043  -72.8527 H         1 UNK         0.0837 
     73 H73       -80.4963   27.4431  -73.7694 H         1 UNK         0.0837 
     74 H74       -79.9905   30.9696  -72.6151 H         1 UNK         0.0685 
     75 H75       -79.7264   29.7929  -73.8731 H         1 UNK         0.0685 
     76 H76       -79.4056   27.4514  -71.5094 H         1 UNK         0.1434 
     77 H77       -75.4078   28.2617  -70.2189 H         1 UNK         0.1329 
     78 H78       -77.5638   31.2230  -72.4341 H         1 UNK         0.1335 
     79 H79       -75.4742   31.7522  -70.8899 H         1 UNK         0.0680 
     80 H80       -74.4436   30.3912  -70.5109 H         1 UNK         0.0680 
     81 H81       -72.5471   31.5623  -71.3688 H         1 UNK         0.1032 
     82 H82       -72.2456   32.0281  -73.0077 H         1 UNK         0.1032 
     83 H83       -70.6883   30.2888  -72.5370 H         1 UNK         0.0461 
     84 H84       -72.2230   27.0009  -70.9792 H         1 UNK         0.3453 
     85 H85       -72.5162   27.3773  -72.6621 H         1 UNK         0.3453 
     86 H86       -72.5366   28.6640  -74.1110 H         1 UNK         0.2984 
     87 H87       -72.8321   29.8748  -76.5441 H         1 UNK         0.0554 
     88 H88       -71.3932   29.7138  -78.5818 H         1 UNK         0.0847 
     89 H89       -69.9495   29.7847  -77.5715 H         1 UNK         0.0847 
     90 H90       -71.0450   31.1553  -77.6428 H         1 UNK         0.0847 
     91 H91       -72.8637   27.6954  -76.6787 H         1 UNK         0.3141 
     92 H92       -70.6664   25.2554  -77.4355 H         1 UNK         0.0743 
     93 H93       -71.6133   25.2088  -74.5193 H         1 UNK         0.0784 
     94 H94       -71.1821   23.7989  -75.4865 H         1 UNK         0.0784 
     95 H95       -69.9561   24.9786  -75.0575 H         1 UNK         0.0784 
     96 H96       -73.2977   25.0066  -76.3154 H         1 UNK         0.3213 
     97 H97       -75.0768   26.1996  -79.1801 H         1 UNK         0.0855 
     98 H98       -74.8236   23.4116  -77.9337 H         1 UNK         0.0814 
     99 H99       -74.7119   23.7998  -79.6422 H         1 UNK         0.0814 
    100 H100      -76.2392   24.0097  -78.7978 H         1 UNK         0.0814 
    101 H101      -76.0372   25.3027  -76.6656 H         1 UNK         0.3105 
    102 H102      -75.7877   28.4123  -74.9008 H         1 UNK         0.0547 
    103 H103      -77.8996   28.5303  -76.1755 H         1 UNK         0.0837 
    104 H104      -78.1552   26.8009  -75.9968 H         1 UNK         0.0837 
    105 H105      -78.1938   27.8540  -74.5818 H         1 UNK         0.0837 
    106 H106      -76.6753   25.7371  -74.2445 H         1 UNK         0.3020 
    107 H107      -73.5746   24.6924  -72.8510 H         1 UNK         0.1245 
    108 H108      -74.8001   26.1221  -71.0909 H         1 UNK         0.0781 
    109 H109      -74.7075   24.4139  -70.8074 H         1 UNK         0.0781 
    110 H110      -76.6293   26.3556  -69.3021 H         1 UNK         0.0836 
    111 H111      -78.3220   26.1478  -69.6583 H         1 UNK         0.0836 
    112 H112      -76.1095   23.4123  -73.0521 H         1 UNK         0.3022 
    113 H113      -75.6746   21.9693  -76.2694 H         1 UNK         0.0747 
    114 H114      -75.9623   19.8565  -75.0173 H         1 UNK         0.0793 
    115 H115      -74.3436   20.4831  -74.7597 H         1 UNK         0.0793 
    116 H116      -75.5571   20.6603  -73.4998 H         1 UNK         0.0793 
    117 H117      -77.7398   21.5376  -74.4368 H         1 UNK         0.3047 
    118 H118      -79.8857   22.4217  -75.2500 H         1 UNK         0.0822 
    119 H119      -79.0920   22.8718  -72.8898 H         1 UNK         0.0807 
    120 H120      -80.6453   23.6225  -73.2013 H         1 UNK         0.0807 
    121 H121      -79.1832   24.6016  -73.1955 H         1 UNK         0.0807 
    122 H122      -80.1578   25.3424  -75.2454 H         1 UNK         0.2946 
    123 H123      -80.3330   26.1018  -78.1786 H         1 UNK         0.1144 
    124 H124      -82.0593   24.7940  -79.3324 H         1 UNK         0.0793 
    125 H125      -82.7172   26.3688  -78.9255 H         1 UNK         0.0793 
    126 H126      -83.1644   24.9508  -77.9776 H         1 UNK         0.0793 
    127 H127      -80.8979   27.5768  -76.6416 H         1 UNK         0.2896 
@<TRIPOS>BOND
     1    1    2 1    
     2    1   67 1    
     3    1   68 1    
     4    1   69 1    
     5    2    3 2    
     6    2    4 am   BACKBONE|DICT|INTERRES
     7    4    5 1    
     8    4   70 1    
     9    5    6 1    
    10    5   65 1    
    11    5   71 1    
    12    6    7 1    
    13    6   72 1    
    14    6   73 1    
    15    7    8 1    
    16    8    9 1    
    17    8   74 1    
    18    8   75 1    
    19    9   10 ar   
    20    9   14 ar   
    21   10   11 ar   
    22   10   76 1    
    23   11   12 ar   
    24   11   48 1    
    25   12   13 ar   
    26   12   77 1    
    27   13   14 ar   
    28   13   15 1    
    29   14   78 1    
    30   15   16 1    
    31   15   79 1    
    32   15   80 1    
    33   16   17 1    
    34   17   18 1    
    35   17   81 1    
    36   17   82 1    
    37   18   19 1    
    38   18   22 1    
    39   18   83 1    
    40   19   20 am   BACKBONE|DICT|INTERRES
    41   19   21 2    
    42   20   84 1    
    43   20   85 1    
    44   22   23 am   BACKBONE|DICT|INTERRES
    45   22   86 1    
    46   23   24 2    
    47   23   25 1    
    48   25   26 1    
    49   25   27 1    
    50   25   87 1    
    51   26   88 1    
    52   26   89 1    
    53   26   90 1    
    54   27   28 am   BACKBONE|DICT|INTERRES
    55   27   91 1    
    56   28   29 2    
    57   28   30 1    
    58   30   31 1    
    59   30   32 1    
    60   30   92 1    
    61   31   93 1    
    62   31   94 1    
    63   31   95 1    
    64   32   33 am   BACKBONE|DICT|INTERRES
    65   32   96 1    
    66   33   34 2    
    67   33   35 1    
    68   35   36 1    
    69   35   37 1    
    70   35   97 1    
    71   36   98 1    
    72   36   99 1    
    73   36  100 1    
    74   37   38 am   BACKBONE|DICT|INTERRES
    75   37  101 1    
    76   38   39 2    
    77   38   40 1    
    78   40   41 1    
    79   40   42 1    
    80   40  102 1    
    81   41  103 1    
    82   41  104 1    
    83   41  105 1    
    84   42   43 am   BACKBONE|DICT|INTERRES
    85   42  106 1    
    86   43   44 2    
    87   43   45 1    
    88   45   46 1    
    89   45   49 1    
    90   45  107 1    
    91   46   47 1    
    92   46  108 1    
    93   46  109 1    
    94   47   48 1    
    95   48  110 1    
    96   48  111 1    
    97   49   50 am   BACKBONE|DICT|INTERRES
    98   49  112 1    
    99   50   51 2    
   100   50   52 1    
   101   52   53 1    
   102   52   54 1    
   103   52  113 1    
   104   53  114 1    
   105   53  115 1    
   106   53  116 1    
   107   54   55 am   BACKBONE|DICT|INTERRES
   108   54  117 1    
   109   55   56 2    
   110   55   57 1    
   111   57   58 1    
   112   57   59 1    
   113   57  118 1    
   114   58  119 1    
   115   58  120 1    
   116   58  121 1    
   117   59   60 am   BACKBONE|DICT|INTERRES
   118   59  122 1    
   119   60   61 2    
   120   60   62 1    
   121   62   63 1    
   122   62   64 1    
   123   62  123 1    
   124   63  124 1    
   125   63  125 1    
   126   63  126 1    
   127   64   65 am   BACKBONE|DICT|INTERRES
   128   64  127 1    
   129   65   66 2    
@<TRIPOS>SUBSTRUCTURE
     1 UNK         1 GROUP             0       ****    0 ROOT    
