@<TRIPOS>MOLECULE
3R135
127   129    1
SMALL
USER_CHARGES


@<TRIPOS>ATOM
      1 CA        -78.5004   21.3792  -72.4226 C.3       0 UNK        -0.1998 
      2 C         -79.2421   22.3738  -71.5421 C.2       0 UNK         0.4909 
      3 O         -79.3367   22.1703  -70.3311 O.2       0 UNK        -0.5240 
      4 N         -79.7651   23.4436  -72.1466 N.am      1 UNK        -0.4739 
      5 CA        -80.5569   24.4889  -71.4981 C.3       1 UNK         0.0864 
      6 C6        -79.7178   25.7878  -71.3678 C.3       11 UNK        -0.0881 
      7 S7        -80.5168   27.0798  -70.3566 S.3       11 UNK        -0.2682 
      8 C8        -79.1405   28.2562  -70.1220 C.3       11 UNK         0.0289 
      9 C9        -78.5000   28.7574  -71.4167 C.ar      11 UNK        -0.0687 
     10 C10       -79.2568   29.0047  -72.5687 C.ar      11 UNK        -0.0823 
     11 C11       -78.6468   29.4576  -73.7424 C.ar      11 UNK        -0.0830 
     12 C12       -77.2689   29.6988  -73.7528 C.ar      11 UNK        -0.1021 
     13 C13       -76.5050   29.4785  -72.6030 C.ar      11 UNK        -0.0753 
     14 C14       -77.1240   29.0015  -71.4444 C.ar      11 UNK        -0.0933 
     15 C15       -75.0119   29.7609  -72.5996 C.3       11 UNK         0.0166 
     16 S16       -74.6794   31.4918  -72.1543 S.3       11 UNK        -0.2615 
     17 C17       -72.9744   31.3909  -71.5081 C.3       11 UNK        -0.0865 
     18 CA        -71.9006   31.6172  -72.6029 C.3       10 UNK         0.0862 
     19 C         -70.5010   31.8808  -71.9740 C.2       10 UNK         0.5551 
     20 N         -69.4912   31.0539  -72.2199 N.am      10 UNK        -0.7319 
     21 O         -70.3263   32.8631  -71.2571 O.2       10 UNK        -0.5018 
     22 N         -71.9025   30.5233  -73.5862 N.am      10 UNK        -0.4509 
     23 C         -71.6108   30.6513  -74.8829 C.2       10 UNK         0.4899 
     24 O         -71.3800   31.7333  -75.4240 O.2       10 UNK        -0.4839 
     25 CA        -71.5618   29.3731  -75.7422 C.3       9 UNK         0.0222 
     26 CB        -70.1043   28.9757  -76.0459 C.3       9 UNK        -0.1966 
     27 N         -72.3196   28.2120  -75.2500 N.am      9 UNK        -0.4218 
     28 C         -72.1261   27.4624  -74.1538 C.2       9 UNK         0.5020 
     29 O         -71.3476   27.7583  -73.2469 O.2       9 UNK        -0.5274 
     30 CA        -72.9251   26.1479  -74.0634 C.3       8 UNK         0.0270 
     31 CB        -74.3200   26.3801  -73.4621 C.3       8 UNK        -0.1976 
     32 N         -73.0584   25.4797  -75.3609 N.am      8 UNK        -0.4313 
     33 C         -72.0389   24.9676  -76.0675 C.2       8 UNK         0.5041 
     34 O         -70.8765   24.9174  -75.6637 O.2       8 UNK        -0.5577 
     35 CA        -72.3677   24.4448  -77.4738 C.3       7 UNK         0.0284 
     36 CB        -72.9100   23.0075  -77.4145 C.3       7 UNK        -0.1958 
     37 N         -73.3297   25.3162  -78.1519 N.am      7 UNK        -0.4454 
     38 C         -73.0039   26.4650  -78.7620 C.2       7 UNK         0.5089 
     39 O         -71.8485   26.8703  -78.8884 O.2       7 UNK        -0.5125 
     40 CA        -74.1593   27.3146  -79.3230 C.3       6 UNK         0.0408 
     41 CB        -74.4122   26.9672  -80.7984 C.3       6 UNK        -0.1791 
     42 N         -75.4087   27.1724  -78.5697 N.am      6 UNK        -0.4762 
     43 C         -75.6009   27.6249  -77.3216 C.2       6 UNK         0.5007 
     44 O         -74.7460   28.2291  -76.6763 O.2       6 UNK        -0.5032 
     45 CA        -76.9590   27.3073  -76.6654 C.3       5 UNK         0.0783 
     46 C46       -77.9874   28.4117  -77.0051 C.3       11 UNK        -0.0857 
     47 S47       -79.5435   28.2352  -76.0666 S.3       11 UNK        -0.2512 
     48 C48       -79.4899   29.7019  -74.9856 C.3       11 UNK         0.0225 
     49 N         -77.4563   25.9704  -77.0134 N.am      5 UNK        -0.4615 
     50 C         -76.8222   24.8123  -76.7802 C.2       4 UNK         0.5053 
     51 O         -75.6940   24.7488  -76.2886 O.2       4 UNK        -0.5105 
     52 CA        -77.5504   23.5189  -77.2036 C.3       4 UNK         0.0263 
     53 CB        -77.1132   22.2974  -76.3666 C.3       4 UNK        -0.1981 
     54 N         -79.0157   23.6532  -77.2278 N.am      4 UNK        -0.4224 
     55 C         -79.8102   23.8995  -76.1772 C.2       3 UNK         0.4895 
     56 O         -79.4157   23.9811  -75.0077 O.2       3 UNK        -0.5091 
     57 CA        -81.2999   24.1003  -76.4823 C.3       3 UNK         0.0250 
     58 CB        -82.0229   22.7398  -76.5291 C.3       3 UNK        -0.1996 
     59 N         -81.8061   24.9283  -75.3992 N.am      3 UNK        -0.4254 
     60 C         -83.0351   25.3949  -75.1662 C.2       2 UNK         0.5004 
     61 O         -83.9797   25.2763  -75.9482 O.2       2 UNK        -0.5226 
     62 CA        -83.2244   26.1230  -73.8150 C.3       2 UNK         0.0269 
     63 CB        -84.6280   25.8991  -73.2140 C.3       2 UNK        -0.1926 
     64 N         -82.1684   25.8093  -72.8322 N.am      2 UNK        -0.4687 
     65 C         -81.8666   24.6094  -72.3066 C.2       1 UNK         0.5165 
     66 O         -82.5487   23.5981  -72.4860 O.2       1 UNK        -0.5079 
     67 H67       -78.6520   21.5867  -73.4817 H         1 UNK         0.0900 
     68 H68       -77.4313   21.4179  -72.2158 H         1 UNK         0.0900 
     69 H69       -78.8511   20.3665  -72.2254 H         1 UNK         0.0900 
     70 H70       -79.6607   23.5456  -73.1543 H         1 UNK         0.2959 
     71 H71       -80.8522   24.1687  -70.4964 H         1 UNK         0.1079 
     72 H72       -79.4610   26.1853  -72.3516 H         1 UNK         0.0837 
     73 H73       -78.7646   25.5499  -70.8923 H         1 UNK         0.0837 
     74 H74       -78.3904   27.7759  -69.4915 H         1 UNK         0.0685 
     75 H75       -79.5093   29.1162  -69.5619 H         1 UNK         0.0685 
     76 H76       -80.3247   28.8391  -72.5568 H         1 UNK         0.1434 
     77 H77       -76.7895   30.0677  -74.6489 H         1 UNK         0.1329 
     78 H78       -76.5311   28.8328  -70.5557 H         1 UNK         0.1335 
     79 H79       -74.5129   29.0949  -71.8950 H         1 UNK         0.0680 
     80 H80       -74.5870   29.5531  -73.5826 H         1 UNK         0.0680 
     81 H81       -72.8166   30.4392  -70.9978 H         1 UNK         0.1032 
     82 H82       -72.8931   32.1560  -70.7334 H         1 UNK         0.1032 
     83 H83       -72.1614   32.5425  -73.1204 H         1 UNK         0.0461 
     84 H84       -69.6288   30.2398  -72.7975 H         1 UNK         0.3453 
     85 H85       -68.5887   31.2387  -71.8109 H         1 UNK         0.3453 
     86 H86       -71.9676   29.5799  -73.2189 H         1 UNK         0.2984 
     87 H87       -72.0323   29.6332  -76.6917 H         1 UNK         0.0554 
     88 H88       -69.5594   29.8026  -76.5034 H         1 UNK         0.0847 
     89 H89       -70.0620   28.1367  -76.7411 H         1 UNK         0.0847 
     90 H90       -69.5635   28.6900  -75.1432 H         1 UNK         0.0847 
     91 H91       -73.0979   27.9508  -75.8521 H         1 UNK         0.3141 
     92 H92       -72.3778   25.4740  -73.4010 H         1 UNK         0.0743 
     93 H93       -74.2450   26.7819  -72.4515 H         1 UNK         0.0784 
     94 H94       -74.9064   27.0814  -74.0554 H         1 UNK         0.0784 
     95 H95       -74.8839   25.4492  -73.3960 H         1 UNK         0.0784 
     96 H96       -73.9984   25.3921  -75.7404 H         1 UNK         0.3213 
     97 H97       -71.4401   24.4288  -78.0510 H         1 UNK         0.0855 
     98 H98       -73.8160   22.9376  -76.8133 H         1 UNK         0.0814 
     99 H99       -72.1750   22.3358  -76.9691 H         1 UNK         0.0814 
    100 H100      -73.1358   22.6259  -78.4102 H         1 UNK         0.0814 
    101 H101      -74.3077   25.0852  -78.0442 H         1 UNK         0.3105 
    102 H102      -73.8521   28.3614  -79.2693 H         1 UNK         0.0547 
    103 H103      -73.5032   27.0911  -81.3889 H         1 UNK         0.0837 
    104 H104      -74.7413   25.9347  -80.9216 H         1 UNK         0.0837 
    105 H105      -75.1701   27.6172  -81.2358 H         1 UNK         0.0837 
    106 H106      -76.1661   26.6833  -79.0251 H         1 UNK         0.3020 
    107 H107      -76.7957   27.3149  -75.5855 H         1 UNK         0.1245 
    108 H108      -78.2320   28.3909  -78.0688 H         1 UNK         0.0781 
    109 H109      -77.5656   29.4012  -76.8204 H         1 UNK         0.0781 
    110 H110      -80.5113   29.9521  -74.6946 H         1 UNK         0.0836 
    111 H111      -79.1207   30.5685  -75.5360 H         1 UNK         0.0836 
    112 H112      -78.3838   25.9369  -77.4090 H         1 UNK         0.3022 
    113 H113      -77.2486   23.3313  -78.2350 H         1 UNK         0.0747 
    114 H114      -77.6752   21.4043  -76.6392 H         1 UNK         0.0793 
    115 H115      -77.2490   22.4691  -75.2988 H         1 UNK         0.0793 
    116 H116      -76.0579   22.0741  -76.5230 H         1 UNK         0.0793 
    117 H117      -79.4416   23.5905  -78.1430 H         1 UNK         0.3047 
    118 H118      -81.4202   24.6344  -77.4266 H         1 UNK         0.0822 
    119 H119      -83.0802   22.8538  -76.7676 H         1 UNK         0.0807 
    120 H120      -81.9509   22.2149  -75.5752 H         1 UNK         0.0807 
    121 H121      -81.5920   22.0913  -77.2930 H         1 UNK         0.0807 
    122 H122      -81.0989   25.0995  -74.6948 H         1 UNK         0.2946 
    123 H123      -83.1280   27.1870  -74.0381 H         1 UNK         0.1144 
    124 H124      -85.4035   26.2760  -73.8820 H         1 UNK         0.0793 
    125 H125      -84.7403   26.4202  -72.2634 H         1 UNK         0.0793 
    126 H126      -84.8345   24.8420  -73.0449 H         1 UNK         0.0793 
    127 H127      -81.5661   26.5815  -72.5785 H         1 UNK         0.2896 
@<TRIPOS>BOND
     1    1    2 1    
     2    1   67 1    
     3    1   68 1    
     4    1   69 1    
     5    2    3 2    
     6    2    4 am   BACKBONE|DICT|INTERRES
     7    4    5 1    
     8    4   70 1    
     9    5    6 1    
    10    5   65 1    
    11    5   71 1    
    12    6    7 1    
    13    6   72 1    
    14    6   73 1    
    15    7    8 1    
    16    8    9 1    
    17    8   74 1    
    18    8   75 1    
    19    9   10 ar   
    20    9   14 ar   
    21   10   11 ar   
    22   10   76 1    
    23   11   12 ar   
    24   11   48 1    
    25   12   13 ar   
    26   12   77 1    
    27   13   14 ar   
    28   13   15 1    
    29   14   78 1    
    30   15   16 1    
    31   15   79 1    
    32   15   80 1    
    33   16   17 1    
    34   17   18 1    
    35   17   81 1    
    36   17   82 1    
    37   18   19 1    
    38   18   22 1    
    39   18   83 1    
    40   19   20 am   BACKBONE|DICT|INTERRES
    41   19   21 2    
    42   20   84 1    
    43   20   85 1    
    44   22   23 am   BACKBONE|DICT|INTERRES
    45   22   86 1    
    46   23   24 2    
    47   23   25 1    
    48   25   26 1    
    49   25   27 1    
    50   25   87 1    
    51   26   88 1    
    52   26   89 1    
    53   26   90 1    
    54   27   28 am   BACKBONE|DICT|INTERRES
    55   27   91 1    
    56   28   29 2    
    57   28   30 1    
    58   30   31 1    
    59   30   32 1    
    60   30   92 1    
    61   31   93 1    
    62   31   94 1    
    63   31   95 1    
    64   32   33 am   BACKBONE|DICT|INTERRES
    65   32   96 1    
    66   33   34 2    
    67   33   35 1    
    68   35   36 1    
    69   35   37 1    
    70   35   97 1    
    71   36   98 1    
    72   36   99 1    
    73   36  100 1    
    74   37   38 am   BACKBONE|DICT|INTERRES
    75   37  101 1    
    76   38   39 2    
    77   38   40 1    
    78   40   41 1    
    79   40   42 1    
    80   40  102 1    
    81   41  103 1    
    82   41  104 1    
    83   41  105 1    
    84   42   43 am   BACKBONE|DICT|INTERRES
    85   42  106 1    
    86   43   44 2    
    87   43   45 1    
    88   45   46 1    
    89   45   49 1    
    90   45  107 1    
    91   46   47 1    
    92   46  108 1    
    93   46  109 1    
    94   47   48 1    
    95   48  110 1    
    96   48  111 1    
    97   49   50 am   BACKBONE|DICT|INTERRES
    98   49  112 1    
    99   50   51 2    
   100   50   52 1    
   101   52   53 1    
   102   52   54 1    
   103   52  113 1    
   104   53  114 1    
   105   53  115 1    
   106   53  116 1    
   107   54   55 am   BACKBONE|DICT|INTERRES
   108   54  117 1    
   109   55   56 2    
   110   55   57 1    
   111   57   58 1    
   112   57   59 1    
   113   57  118 1    
   114   58  119 1    
   115   58  120 1    
   116   58  121 1    
   117   59   60 am   BACKBONE|DICT|INTERRES
   118   59  122 1    
   119   60   61 2    
   120   60   62 1    
   121   62   63 1    
   122   62   64 1    
   123   62  123 1    
   124   63  124 1    
   125   63  125 1    
   126   63  126 1    
   127   64   65 am   BACKBONE|DICT|INTERRES
   128   64  127 1    
   129   65   66 2    
@<TRIPOS>SUBSTRUCTURE
     1 UNK         1 GROUP             0       ****    0 ROOT    
