@<TRIPOS>MOLECULE
3R135
127   129    1
SMALL
USER_CHARGES


@<TRIPOS>ATOM
      1 CA        -82.6242   30.7406  -77.3147 C.3       0 UNK        -0.1998 
      2 C         -81.6523   29.6779  -76.8241 C.2       0 UNK         0.4909 
      3 O         -81.0836   28.9471  -77.6355 O.2       0 UNK        -0.5240 
      4 N         -81.4507   29.5931  -75.5033 N.am      1 UNK        -0.4739 
      5 CA        -80.5836   28.6070  -74.8490 C.3       1 UNK         0.0864 
      6 C6        -80.3129   28.9683  -73.3666 C.3       11 UNK        -0.0881 
      7 S7        -79.5398   30.6099  -73.1649 S.3       11 UNK        -0.2682 
      8 C8        -77.7718   30.2322  -73.3767 C.3       11 UNK         0.0289 
      9 C9        -77.1670   29.5682  -72.1479 C.ar      11 UNK        -0.0687 
     10 C10       -77.0375   28.1781  -72.0875 C.ar      11 UNK        -0.0823 
     11 C11       -76.4322   27.5560  -70.9860 C.ar      11 UNK        -0.0830 
     12 C12       -75.9536   28.3567  -69.9447 C.ar      11 UNK        -0.1021 
     13 C13       -76.0835   29.7480  -69.9862 C.ar      11 UNK        -0.0753 
     14 C14       -76.7020   30.3477  -71.0864 C.ar      11 UNK        -0.0933 
     15 C15       -75.5419   30.5980  -68.8437 C.3       11 UNK         0.0166 
     16 S16       -74.2197   31.7373  -69.3736 S.3       11 UNK        -0.2615 
     17 C17       -73.0584   30.6223  -70.2401 C.3       11 UNK        -0.0865 
     18 CA        -73.1120   30.8083  -71.7883 C.3       10 UNK         0.0862 
     19 C         -72.1609   31.9328  -72.3097 C.2       10 UNK         0.5551 
     20 N         -71.5605   31.8065  -73.4874 N.am      10 UNK        -0.7319 
     21 O         -71.9789   32.9545  -71.6523 O.2       10 UNK        -0.5018 
     22 N         -73.0184   29.5346  -72.5218 N.am      10 UNK        -0.4509 
     23 C         -71.9762   28.6934  -72.5047 C.2       10 UNK         0.4899 
     24 O         -71.0046   28.8171  -71.7586 O.2       10 UNK        -0.4839 
     25 CA        -72.0008   27.5226  -73.5085 C.3       9 UNK         0.0222 
     26 CB        -72.4856   26.2408  -72.8146 C.3       9 UNK        -0.1966 
     27 N         -72.7842   27.7504  -74.7354 N.am      9 UNK        -0.4218 
     28 C         -72.5673   28.7494  -75.6074 C.2       9 UNK         0.5020 
     29 O         -71.7378   29.6401  -75.4181 O.2       9 UNK        -0.5274 
     30 CA        -73.3804   28.7921  -76.9098 C.3       8 UNK         0.0270 
     31 CB        -72.5335   28.2655  -78.0821 C.3       8 UNK        -0.1976 
     32 N         -74.6451   28.0499  -76.8677 N.am      8 UNK        -0.4313 
     33 C         -75.7924   28.4927  -77.4095 C.2       8 UNK         0.5041 
     34 O         -75.9479   29.6480  -77.8101 O.2       8 UNK        -0.5577 
     35 CA        -76.9607   27.4862  -77.5550 C.3       7 UNK         0.0284 
     36 CB        -77.8893   27.8197  -78.7399 C.3       7 UNK        -0.1958 
     37 N         -76.5396   26.0818  -77.6237 N.am      7 UNK        -0.4454 
     38 C         -75.6335   25.5261  -78.4464 C.2       7 UNK         0.5089 
     39 O         -75.1563   26.0958  -79.4284 O.2       7 UNK        -0.5125 
     40 CA        -75.1254   24.1177  -78.0605 C.3       6 UNK         0.0408 
     41 CB        -73.6388   23.9185  -78.4208 C.3       6 UNK        -0.1791 
     42 N         -75.3573   23.7768  -76.6478 N.am      6 UNK        -0.4762 
     43 C         -74.9474   24.4545  -75.5596 C.2       6 UNK         0.5007 
     44 O         -74.2052   25.4385  -75.6170 O.2       6 UNK        -0.5032 
     45 CA        -75.5718   24.0735  -74.1989 C.3       5 UNK         0.0783 
     46 C46       -76.2883   25.3182  -73.6144 C.3       11 UNK        -0.0857 
     47 S47       -77.1792   25.0077  -72.0523 S.3       11 UNK        -0.2512 
     48 C48       -76.2490   26.0383  -70.8649 C.3       11 UNK         0.0225 
     49 N         -76.5011   22.9509  -74.3420 N.am      5 UNK        -0.4615 
     50 C         -76.1989   21.6597  -74.1653 C.2       4 UNK         0.5053 
     51 O         -75.0956   21.2577  -73.7970 O.2       4 UNK        -0.5105 
     52 CA        -77.3134   20.6412  -74.4761 C.3       4 UNK         0.0263 
     53 CB        -78.0406   20.2368  -73.1837 C.3       4 UNK        -0.1981 
     54 N         -78.2977   21.1340  -75.4475 N.am      4 UNK        -0.4224 
     55 C         -78.0316   21.4244  -76.7301 C.2       3 UNK         0.4895 
     56 O         -76.9360   21.2397  -77.2582 O.2       3 UNK        -0.5091 
     57 CA        -79.1513   22.0978  -77.5421 C.3       3 UNK         0.0250 
     58 CB        -79.9957   21.0429  -78.2742 C.3       3 UNK        -0.1996 
     59 N         -80.0271   22.9539  -76.7332 N.am      3 UNK        -0.4254 
     60 C         -79.6329   24.0634  -76.0937 C.2       2 UNK         0.5004 
     61 O         -78.4746   24.4930  -76.1028 O.2       2 UNK        -0.5226 
     62 CA        -80.6956   24.7774  -75.2553 C.3       2 UNK         0.0269 
     63 CB        -80.8130   24.1291  -73.8638 C.3       2 UNK        -0.1926 
     64 N         -80.3213   26.1813  -75.1146 N.am      2 UNK        -0.4687 
     65 C         -81.1844   27.1897  -74.9513 C.2       1 UNK         0.5165 
     66 O         -82.4045   27.0337  -74.8495 O.2       1 UNK        -0.5079 
     67 H67       -82.1186   31.4259  -77.9945 H         1 UNK         0.0900 
     68 H68       -83.0401   31.3233  -76.4929 H         1 UNK         0.0900 
     69 H69       -83.4495   30.2740  -77.8518 H         1 UNK         0.0900 
     70 H70       -81.9484   30.2136  -74.8811 H         1 UNK         0.2959 
     71 H71       -79.6318   28.6070  -75.3841 H         1 UNK         0.1079 
     72 H72       -81.2487   28.9738  -72.8040 H         1 UNK         0.0837 
     73 H73       -79.6896   28.2136  -72.8865 H         1 UNK         0.0837 
     74 H74       -77.6300   29.6097  -74.2614 H         1 UNK         0.0685 
     75 H75       -77.2415   31.1638  -73.5802 H         1 UNK         0.0685 
     76 H76       -77.4142   27.5949  -72.9116 H         1 UNK         0.1434 
     77 H77       -75.4737   27.8915  -69.0941 H         1 UNK         0.1329 
     78 H78       -76.7980   31.4242  -71.1261 H         1 UNK         0.1335 
     79 H79       -76.3583   31.1799  -68.4139 H         1 UNK         0.0680 
     80 H80       -75.1577   29.9686  -68.0395 H         1 UNK         0.0680 
     81 H81       -73.2965   29.5938  -69.9669 H         1 UNK         0.1032 
     82 H82       -72.0491   30.7875  -69.8585 H         1 UNK         0.1032 
     83 H83       -74.1083   31.1671  -72.0470 H         1 UNK         0.0461 
     84 H84       -70.9583   32.5464  -73.8106 H         1 UNK         0.3453 
     85 H85       -71.6869   30.9773  -74.0612 H         1 UNK         0.3453 
     86 H86       -73.7671   29.3488  -73.1721 H         1 UNK         0.2984 
     87 H87       -70.9687   27.3583  -73.8247 H         1 UNK         0.0554 
     88 H88       -72.4276   25.3783  -73.4785 H         1 UNK         0.0847 
     89 H89       -73.5129   26.3398  -72.4704 H         1 UNK         0.0847 
     90 H90       -71.8729   26.0148  -71.9406 H         1 UNK         0.0847 
     91 H91       -73.4227   27.0047  -74.9966 H         1 UNK         0.3141 
     92 H92       -73.5816   29.8499  -77.0915 H         1 UNK         0.0743 
     93 H93       -72.3032   27.2057  -77.9663 H         1 UNK         0.0784 
     94 H94       -73.0532   28.3907  -79.0324 H         1 UNK         0.0784 
     95 H95       -71.5866   28.8020  -78.1576 H         1 UNK         0.0784 
     96 H96       -74.5963   27.0843  -76.5558 H         1 UNK         0.3213 
     97 H97       -77.5479   27.5807  -76.6410 H         1 UNK         0.0855 
     98 H98       -78.3174   28.8177  -78.6367 H         1 UNK         0.0814 
     99 H99       -78.7236   27.1205  -78.7975 H         1 UNK         0.0814 
    100 H100      -77.3562   27.7885  -79.6905 H         1 UNK         0.0814 
    101 H101      -76.9498   25.4731  -76.9208 H         1 UNK         0.3105 
    102 H102      -75.7117   23.4101  -78.6481 H         1 UNK         0.0547 
    103 H103      -73.4747   24.0367  -79.4924 H         1 UNK         0.0837 
    104 H104      -72.9985   24.6405  -77.9132 H         1 UNK         0.0837 
    105 H105      -73.2968   22.9194  -78.1517 H         1 UNK         0.0837 
    106 H106      -75.9694   22.9818  -76.5044 H         1 UNK         0.3020 
    107 H107      -74.7535   23.7946  -73.5312 H         1 UNK         0.1245 
    108 H108      -77.0201   25.7060  -74.3240 H         1 UNK         0.0781 
    109 H109      -75.5738   26.1272  -73.4607 H         1 UNK         0.0781 
    110 H110      -75.1889   25.7948  -70.9349 H         1 UNK         0.0836 
    111 H111      -76.5608   25.7336  -69.8647 H         1 UNK         0.0836 
    112 H112      -77.4272   23.1992  -74.6641 H         1 UNK         0.3022 
    113 H113      -76.8387   19.7531  -74.8988 H         1 UNK         0.0747 
    114 H114      -78.7843   19.4620  -73.3712 H         1 UNK         0.0793 
    115 H115      -77.3385   19.8381  -72.4498 H         1 UNK         0.0793 
    116 H116      -78.5465   21.0860  -72.7218 H         1 UNK         0.0793 
    117 H117      -79.2298   21.3088  -75.1019 H         1 UNK         0.3047 
    118 H118      -78.6713   22.7318  -78.2912 H         1 UNK         0.0822 
    119 H119      -80.7346   21.5085  -78.9266 H         1 UNK         0.0807 
    120 H120      -80.5246   20.3913  -77.5774 H         1 UNK         0.0807 
    121 H121      -79.3681   20.4079  -78.9015 H         1 UNK         0.0807 
    122 H122      -80.9942   22.6692  -76.6649 H         1 UNK         0.2946 
    123 H123      -81.6523   24.7059  -75.7786 H         1 UNK         0.1144 
    124 H124      -81.0991   23.0794  -73.9386 H         1 UNK         0.0793 
    125 H125      -81.5713   24.6255  -73.2579 H         1 UNK         0.0793 
    126 H126      -79.8700   24.1739  -73.3178 H         1 UNK         0.0793 
    127 H127      -79.3334   26.3583  -75.2360 H         1 UNK         0.2896 
@<TRIPOS>BOND
     1    1    2 1    
     2    1   67 1    
     3    1   68 1    
     4    1   69 1    
     5    2    3 2    
     6    2    4 am   BACKBONE|DICT|INTERRES
     7    4    5 1    
     8    4   70 1    
     9    5    6 1    
    10    5   65 1    
    11    5   71 1    
    12    6    7 1    
    13    6   72 1    
    14    6   73 1    
    15    7    8 1    
    16    8    9 1    
    17    8   74 1    
    18    8   75 1    
    19    9   10 ar   
    20    9   14 ar   
    21   10   11 ar   
    22   10   76 1    
    23   11   12 ar   
    24   11   48 1    
    25   12   13 ar   
    26   12   77 1    
    27   13   14 ar   
    28   13   15 1    
    29   14   78 1    
    30   15   16 1    
    31   15   79 1    
    32   15   80 1    
    33   16   17 1    
    34   17   18 1    
    35   17   81 1    
    36   17   82 1    
    37   18   19 1    
    38   18   22 1    
    39   18   83 1    
    40   19   20 am   BACKBONE|DICT|INTERRES
    41   19   21 2    
    42   20   84 1    
    43   20   85 1    
    44   22   23 am   BACKBONE|DICT|INTERRES
    45   22   86 1    
    46   23   24 2    
    47   23   25 1    
    48   25   26 1    
    49   25   27 1    
    50   25   87 1    
    51   26   88 1    
    52   26   89 1    
    53   26   90 1    
    54   27   28 am   BACKBONE|DICT|INTERRES
    55   27   91 1    
    56   28   29 2    
    57   28   30 1    
    58   30   31 1    
    59   30   32 1    
    60   30   92 1    
    61   31   93 1    
    62   31   94 1    
    63   31   95 1    
    64   32   33 am   BACKBONE|DICT|INTERRES
    65   32   96 1    
    66   33   34 2    
    67   33   35 1    
    68   35   36 1    
    69   35   37 1    
    70   35   97 1    
    71   36   98 1    
    72   36   99 1    
    73   36  100 1    
    74   37   38 am   BACKBONE|DICT|INTERRES
    75   37  101 1    
    76   38   39 2    
    77   38   40 1    
    78   40   41 1    
    79   40   42 1    
    80   40  102 1    
    81   41  103 1    
    82   41  104 1    
    83   41  105 1    
    84   42   43 am   BACKBONE|DICT|INTERRES
    85   42  106 1    
    86   43   44 2    
    87   43   45 1    
    88   45   46 1    
    89   45   49 1    
    90   45  107 1    
    91   46   47 1    
    92   46  108 1    
    93   46  109 1    
    94   47   48 1    
    95   48  110 1    
    96   48  111 1    
    97   49   50 am   BACKBONE|DICT|INTERRES
    98   49  112 1    
    99   50   51 2    
   100   50   52 1    
   101   52   53 1    
   102   52   54 1    
   103   52  113 1    
   104   53  114 1    
   105   53  115 1    
   106   53  116 1    
   107   54   55 am   BACKBONE|DICT|INTERRES
   108   54  117 1    
   109   55   56 2    
   110   55   57 1    
   111   57   58 1    
   112   57   59 1    
   113   57  118 1    
   114   58  119 1    
   115   58  120 1    
   116   58  121 1    
   117   59   60 am   BACKBONE|DICT|INTERRES
   118   59  122 1    
   119   60   61 2    
   120   60   62 1    
   121   62   63 1    
   122   62   64 1    
   123   62  123 1    
   124   63  124 1    
   125   63  125 1    
   126   63  126 1    
   127   64   65 am   BACKBONE|DICT|INTERRES
   128   64  127 1    
   129   65   66 2    
@<TRIPOS>SUBSTRUCTURE
     1 UNK         1 GROUP             0       ****    0 ROOT    
