@<TRIPOS>MOLECULE
3R135
127   129    1
SMALL
USER_CHARGES


@<TRIPOS>ATOM
      1 CA        -76.4539   25.9167  -71.5072 C.3       0 UNK        -0.1998 
      2 C         -77.8213   25.2884  -71.2913 C.2       0 UNK         0.4909 
      3 O         -77.9024   24.1227  -70.9017 O.2       0 UNK        -0.5240 
      4 N         -78.8921   26.0546  -71.5345 N.am      1 UNK        -0.4739 
      5 CA        -80.2858   25.5976  -71.4546 C.3       1 UNK         0.0864 
      6 C6        -81.2658   26.7608  -71.1414 C.3       11 UNK        -0.0881 
      7 S7        -80.7926   27.7145  -69.6559 S.3       11 UNK        -0.2682 
      8 C8        -80.8987   29.4340  -70.2488 C.3       11 UNK         0.0289 
      9 C9        -79.7933   29.7787  -71.2372 C.ar      11 UNK        -0.0687 
     10 C10       -80.0491   29.7637  -72.6130 C.ar      11 UNK        -0.0823 
     11 C11       -79.0395   30.0831  -73.5232 C.ar      11 UNK        -0.0830 
     12 C12       -77.7893   30.4842  -73.0464 C.ar      11 UNK        -0.1021 
     13 C13       -77.5034   30.4532  -71.6810 C.ar      11 UNK        -0.0753 
     14 C14       -78.5131   30.1093  -70.7763 C.ar      11 UNK        -0.0933 
     15 C15       -76.0859   30.7450  -71.2122 C.3       11 UNK         0.0166 
     16 S16       -74.9494   29.4320  -71.7692 S.3       11 UNK        -0.2615 
     17 C17       -73.3293   30.1331  -71.3171 C.3       11 UNK        -0.0865 
     18 CA        -72.6554   30.9015  -72.4844 C.3       10 UNK         0.0862 
     19 C         -71.3216   31.5371  -72.0019 C.2       10 UNK         0.5551 
     20 N         -71.3498   32.7942  -71.5808 N.am      10 UNK        -0.7319 
     21 O         -70.2794   30.8865  -71.9589 O.2       10 UNK        -0.5018 
     22 N         -72.4949   30.0554  -73.6797 N.am      10 UNK        -0.4509 
     23 C         -72.0423   30.4723  -74.8701 C.2       10 UNK         0.4899 
     24 O         -71.7499   31.6455  -75.1074 O.2       10 UNK        -0.4839 
     25 CA        -71.9368   29.4426  -76.0162 C.3       9 UNK         0.0222 
     26 CB        -70.5901   29.5483  -76.7630 C.3       9 UNK        -0.1966 
     27 N         -72.2300   28.0471  -75.6569 N.am      9 UNK        -0.4218 
     28 C         -71.5197   27.2305  -74.8628 C.2       9 UNK         0.5020 
     29 O         -70.5143   27.5759  -74.2424 O.2       9 UNK        -0.5274 
     30 CA        -72.0149   25.7789  -74.7216 C.3       8 UNK         0.0270 
     31 CB        -72.9729   25.6512  -73.5249 C.3       8 UNK        -0.1976 
     32 N         -72.6419   25.2364  -75.9351 N.am      8 UNK        -0.4313 
     33 C         -71.9729   24.9656  -77.0683 C.2       8 UNK         0.5041 
     34 O         -70.7727   25.1931  -77.2254 O.2       8 UNK        -0.5577 
     35 CA        -72.7625   24.3216  -78.2183 C.3       7 UNK         0.0284 
     36 CB        -72.9648   22.8178  -77.9660 C.3       7 UNK        -0.1958 
     37 N         -74.0605   24.9692  -78.3988 N.am      7 UNK        -0.4454 
     38 C         -74.2973   25.9758  -79.2528 C.2       7 UNK         0.5089 
     39 O         -73.4663   26.4090  -80.0514 O.2       7 UNK        -0.5125 
     40 CA        -75.6949   26.6262  -79.2014 C.3       6 UNK         0.0408 
     41 CB        -76.6233   25.9882  -80.2462 C.3       6 UNK        -0.1791 
     42 N         -76.3212   26.5424  -77.8790 N.am      6 UNK        -0.4762 
     43 C         -75.8358   27.1335  -76.7763 C.2       6 UNK         0.5007 
     44 O         -74.8644   27.8890  -76.7830 O.2       6 UNK        -0.5032 
     45 CA        -76.4660   26.7591  -75.4209 C.3       5 UNK         0.0783 
     46 C46       -77.2951   27.9072  -74.8196 C.3       11 UNK        -0.0857 
     47 S47       -78.9396   28.1976  -75.5591 S.3       11 UNK        -0.2512 
     48 C48       -79.2625   29.9175  -75.0213 C.3       11 UNK         0.0225 
     49 N         -77.1628   25.4723  -75.4164 N.am      5 UNK        -0.4615 
     50 C         -76.5619   24.2963  -75.6415 C.2       4 UNK         0.5053 
     51 O         -75.3483   24.1860  -75.8255 O.2       4 UNK        -0.5105 
     52 CA        -77.4528   23.0495  -75.7253 C.3       4 UNK         0.0263 
     53 CB        -77.3823   22.2516  -74.4141 C.3       4 UNK        -0.1981 
     54 N         -78.8501   23.3665  -76.0354 N.am      4 UNK        -0.4224 
     55 C         -79.2996   23.7665  -77.2365 C.2       3 UNK         0.4895 
     56 O         -78.5585   23.9405  -78.2043 O.2       3 UNK        -0.5091 
     57 CA        -80.8138   24.0134  -77.3974 C.3       3 UNK         0.0250 
     58 CB        -81.3711   23.2613  -78.6194 C.3       3 UNK        -0.1996 
     59 N         -81.5512   23.5916  -76.2043 N.am      3 UNK        -0.4254 
     60 C         -82.2017   24.4071  -75.3659 C.2       2 UNK         0.5004 
     61 O         -82.4316   25.5955  -75.5963 O.2       2 UNK        -0.5226 
     62 CA        -82.6206   23.8139  -74.0024 C.3       2 UNK         0.0269 
     63 CB        -82.3639   22.2949  -73.8629 C.3       2 UNK        -0.1926 
     64 N         -81.9915   24.5247  -72.8775 N.am      2 UNK        -0.4687 
     65 C         -80.6879   24.8215  -72.7333 C.2       1 UNK         0.5165 
     66 O         -79.8299   24.5064  -73.5634 O.2       1 UNK        -0.5079 
     67 H67       -75.9730   25.4749  -72.3792 H         1 UNK         0.0900 
     68 H68       -75.8165   25.7449  -70.6403 H         1 UNK         0.0900 
     69 H69       -76.5281   26.9920  -71.6600 H         1 UNK         0.0900 
     70 H70       -78.7689   27.0082  -71.8425 H         1 UNK         0.2959 
     71 H71       -80.3580   24.8817  -70.6327 H         1 UNK         0.1079 
     72 H72       -81.3535   27.4220  -72.0025 H         1 UNK         0.0837 
     73 H73       -82.2714   26.3802  -70.9564 H         1 UNK         0.0837 
     74 H74       -81.8809   29.6047  -70.6926 H         1 UNK         0.0685 
     75 H75       -80.8355   30.1037  -69.3899 H         1 UNK         0.0685 
     76 H76       -81.0248   29.4777  -72.9809 H         1 UNK         0.1434 
     77 H77       -77.0038   30.7448  -73.7423 H         1 UNK         0.1329 
     78 H78       -78.3037   30.0882  -69.7155 H         1 UNK         0.1335 
     79 H79       -75.7624   31.7058  -71.6154 H         1 UNK         0.0680 
     80 H80       -76.0428   30.8260  -70.1250 H         1 UNK         0.0680 
     81 H81       -72.6888   29.3137  -70.9847 H         1 UNK         0.1032 
     82 H82       -73.4563   30.7830  -70.4489 H         1 UNK         0.1032 
     83 H83       -73.3246   31.7144  -72.7739 H         1 UNK         0.0461 
     84 H84       -70.4982   33.2183  -71.2473 H         1 UNK         0.3453 
     85 H85       -72.2012   33.3337  -71.6039 H         1 UNK         0.3453 
     86 H86       -72.7034   29.0764  -73.5615 H         1 UNK         0.2984 
     87 H87       -72.7175   29.7214  -76.7253 H         1 UNK         0.0554 
     88 H88       -70.5404   28.8436  -77.5932 H         1 UNK         0.0847 
     89 H89       -69.7443   29.3510  -76.1038 H         1 UNK         0.0847 
     90 H90       -70.4484   30.5465  -77.1791 H         1 UNK         0.0847 
     91 H91       -73.0787   27.6855  -76.0845 H         1 UNK         0.3141 
     92 H92       -71.1415   25.1576  -74.5110 H         1 UNK         0.0743 
     93 H93       -73.7805   26.3793  -73.5666 H         1 UNK         0.0784 
     94 H94       -73.4126   24.6553  -73.4623 H         1 UNK         0.0784 
     95 H95       -72.4401   25.8280  -72.5896 H         1 UNK         0.0784 
     96 H96       -73.6149   24.9480  -75.8681 H         1 UNK         0.3213 
     97 H97       -72.1694   24.4267  -79.1297 H         1 UNK         0.0855 
     98 H98       -73.5432   22.6264  -77.0618 H         1 UNK         0.0814 
     99 H99       -72.0056   22.3113  -77.8511 H         1 UNK         0.0814 
    100 H100      -73.4825   22.3438  -78.8000 H         1 UNK         0.0814 
    101 H101      -74.7928   24.6969  -77.7537 H         1 UNK         0.3105 
    102 H102      -75.5775   27.6833  -79.4487 H         1 UNK         0.0547 
    103 H103      -76.2051   26.0840  -81.2491 H         1 UNK         0.0837 
    104 H104      -76.7738   24.9246  -80.0569 H         1 UNK         0.0837 
    105 H105      -77.6018   26.4684  -80.2564 H         1 UNK         0.0837 
    106 H106      -77.1161   25.9228  -77.7887 H         1 UNK         0.3020 
    107 H107      -75.6156   26.6321  -74.7529 H         1 UNK         0.1245 
    108 H108      -76.7119   28.8267  -74.8757 H         1 UNK         0.0781 
    109 H109      -77.4473   27.7154  -73.7575 H         1 UNK         0.0781 
    110 H110      -80.2866   30.1888  -75.2814 H         1 UNK         0.0836 
    111 H111      -78.6149   30.5962  -75.5787 H         1 UNK         0.0836 
    112 H112      -78.1601   25.4924  -75.2490 H         1 UNK         0.3022 
    113 H113      -77.0594   22.4219  -76.5279 H         1 UNK         0.0747 
    114 H114      -77.9746   21.3383  -74.4720 H         1 UNK         0.0793 
    115 H115      -76.3553   21.9582  -74.1921 H         1 UNK         0.0793 
    116 H116      -77.7434   22.8328  -73.5647 H         1 UNK         0.0793 
    117 H117      -79.4804   23.4055  -75.2411 H         1 UNK         0.3047 
    118 H118      -80.9389   25.0851  -77.5660 H         1 UNK         0.0822 
    119 H119      -82.4371   23.4504  -78.7470 H         1 UNK         0.0807 
    120 H120      -81.2297   22.1836  -78.5295 H         1 UNK         0.0807 
    121 H121      -80.8760   23.5806  -79.5375 H         1 UNK         0.0807 
    122 H122      -81.4332   22.6263  -75.9298 H         1 UNK         0.2946 
    123 H123      -83.6965   23.9790  -73.9226 H         1 UNK         0.1144 
    124 H124      -82.8686   21.7306  -74.6484 H         1 UNK         0.0793 
    125 H125      -82.7507   21.9231  -72.9139 H         1 UNK         0.0793 
    126 H126      -81.3016   22.0490  -73.8973 H         1 UNK         0.0793 
    127 H127      -82.6311   24.8437  -72.1636 H         1 UNK         0.2896 
@<TRIPOS>BOND
     1    1    2 1    
     2    1   67 1    
     3    1   68 1    
     4    1   69 1    
     5    2    3 2    
     6    2    4 am   BACKBONE|DICT|INTERRES
     7    4    5 1    
     8    4   70 1    
     9    5    6 1    
    10    5   65 1    
    11    5   71 1    
    12    6    7 1    
    13    6   72 1    
    14    6   73 1    
    15    7    8 1    
    16    8    9 1    
    17    8   74 1    
    18    8   75 1    
    19    9   10 ar   
    20    9   14 ar   
    21   10   11 ar   
    22   10   76 1    
    23   11   12 ar   
    24   11   48 1    
    25   12   13 ar   
    26   12   77 1    
    27   13   14 ar   
    28   13   15 1    
    29   14   78 1    
    30   15   16 1    
    31   15   79 1    
    32   15   80 1    
    33   16   17 1    
    34   17   18 1    
    35   17   81 1    
    36   17   82 1    
    37   18   19 1    
    38   18   22 1    
    39   18   83 1    
    40   19   20 am   BACKBONE|DICT|INTERRES
    41   19   21 2    
    42   20   84 1    
    43   20   85 1    
    44   22   23 am   BACKBONE|DICT|INTERRES
    45   22   86 1    
    46   23   24 2    
    47   23   25 1    
    48   25   26 1    
    49   25   27 1    
    50   25   87 1    
    51   26   88 1    
    52   26   89 1    
    53   26   90 1    
    54   27   28 am   BACKBONE|DICT|INTERRES
    55   27   91 1    
    56   28   29 2    
    57   28   30 1    
    58   30   31 1    
    59   30   32 1    
    60   30   92 1    
    61   31   93 1    
    62   31   94 1    
    63   31   95 1    
    64   32   33 am   BACKBONE|DICT|INTERRES
    65   32   96 1    
    66   33   34 2    
    67   33   35 1    
    68   35   36 1    
    69   35   37 1    
    70   35   97 1    
    71   36   98 1    
    72   36   99 1    
    73   36  100 1    
    74   37   38 am   BACKBONE|DICT|INTERRES
    75   37  101 1    
    76   38   39 2    
    77   38   40 1    
    78   40   41 1    
    79   40   42 1    
    80   40  102 1    
    81   41  103 1    
    82   41  104 1    
    83   41  105 1    
    84   42   43 am   BACKBONE|DICT|INTERRES
    85   42  106 1    
    86   43   44 2    
    87   43   45 1    
    88   45   46 1    
    89   45   49 1    
    90   45  107 1    
    91   46   47 1    
    92   46  108 1    
    93   46  109 1    
    94   47   48 1    
    95   48  110 1    
    96   48  111 1    
    97   49   50 am   BACKBONE|DICT|INTERRES
    98   49  112 1    
    99   50   51 2    
   100   50   52 1    
   101   52   53 1    
   102   52   54 1    
   103   52  113 1    
   104   53  114 1    
   105   53  115 1    
   106   53  116 1    
   107   54   55 am   BACKBONE|DICT|INTERRES
   108   54  117 1    
   109   55   56 2    
   110   55   57 1    
   111   57   58 1    
   112   57   59 1    
   113   57  118 1    
   114   58  119 1    
   115   58  120 1    
   116   58  121 1    
   117   59   60 am   BACKBONE|DICT|INTERRES
   118   59  122 1    
   119   60   61 2    
   120   60   62 1    
   121   62   63 1    
   122   62   64 1    
   123   62  123 1    
   124   63  124 1    
   125   63  125 1    
   126   63  126 1    
   127   64   65 am   BACKBONE|DICT|INTERRES
   128   64  127 1    
   129   65   66 2    
@<TRIPOS>SUBSTRUCTURE
     1 UNK         1 GROUP             0       ****    0 ROOT    
