@<TRIPOS>MOLECULE
3R135
127   129    1
SMALL
USER_CHARGES


@<TRIPOS>ATOM
      1 CA        -79.0072   22.7232  -69.8423 C.3       0 UNK        -0.1998 
      2 C         -79.6878   23.8253  -70.6390 C.2       0 UNK         0.4909 
      3 O         -79.2318   24.1423  -71.7358 O.2       0 UNK        -0.5240 
      4 N         -80.7735   24.3939  -70.0937 N.am      1 UNK        -0.4739 
      5 CA        -81.6016   25.4761  -70.6496 C.3       1 UNK         0.0864 
      6 C6        -81.0760   26.8989  -70.2807 C.3       11 UNK        -0.0881 
      7 S7        -79.5414   27.4603  -71.1102 S.3       11 UNK        -0.2682 
      8 C8        -79.8951   29.2318  -71.3269 C.3       11 UNK         0.0289 
      9 C9        -79.0109   29.8566  -72.3948 C.ar      11 UNK        -0.0687 
     10 C10       -79.5130   30.0700  -73.6825 C.ar      11 UNK        -0.0823 
     11 C11       -78.7282   30.6923  -74.6583 C.ar      11 UNK        -0.0830 
     12 C12       -77.4277   31.0928  -74.3393 C.ar      11 UNK        -0.1021 
     13 C13       -76.9093   30.8709  -73.0602 C.ar      11 UNK        -0.0753 
     14 C14       -77.7060   30.2550  -72.0898 C.ar      11 UNK        -0.0933 
     15 C15       -75.4934   31.3154  -72.7306 C.3       11 UNK         0.0166 
     16 S16       -74.2738   30.0608  -73.2232 S.3       11 UNK        -0.2615 
     17 C17       -74.4707   28.8212  -71.8950 C.3       11 UNK        -0.0865 
     18 CA        -73.1817   27.9808  -71.7003 C.3       10 UNK         0.0862 
     19 C         -73.2543   27.0920  -70.4257 C.2       10 UNK         0.5551 
     20 N         -73.1625   27.6996  -69.2503 N.am      10 UNK        -0.7319 
     21 O         -73.4129   25.8743  -70.4803 O.2       10 UNK        -0.5018 
     22 N         -72.8509   27.2506  -72.9309 N.am      10 UNK        -0.4509 
     23 C         -71.6919   26.6354  -73.1910 C.2       10 UNK         0.4899 
     24 O         -70.7645   26.5276  -72.3875 O.2       10 UNK        -0.4839 
     25 CA        -71.5142   26.1030  -74.6249 C.3       9 UNK         0.0222 
     26 CB        -72.1006   24.6885  -74.7579 C.3       9 UNK        -0.1966 
     27 N         -72.1127   26.9792  -75.6389 N.am      9 UNK        -0.4218 
     28 C         -71.7465   28.2495  -75.8740 C.2       9 UNK         0.5020 
     29 O         -70.8114   28.8105  -75.2979 O.2       9 UNK        -0.5274 
     30 CA        -72.5559   29.0070  -76.9471 C.3       8 UNK         0.0270 
     31 CB        -71.9891   30.4074  -77.2612 C.3       8 UNK        -0.1976 
     32 N         -72.7273   28.2313  -78.1809 N.am      8 UNK        -0.4313 
     33 C         -71.7663   27.6703  -78.9353 C.2       8 UNK         0.5041 
     34 O         -70.5604   27.8306  -78.7381 O.2       8 UNK        -0.5577 
     35 CA        -72.2186   26.7776  -80.1134 C.3       7 UNK         0.0284 
     36 CB        -71.2623   25.5871  -80.3425 C.3       7 UNK        -0.1958 
     37 N         -73.6089   26.3101  -80.0173 N.am      7 UNK        -0.4454 
     38 C         -74.1502   25.5613  -79.0456 C.2       7 UNK         0.5089 
     39 O         -73.5309   25.1100  -78.0801 O.2       7 UNK        -0.5125 
     40 CA        -75.6699   25.3517  -79.1375 C.3       6 UNK         0.0408 
     41 CB        -76.0166   23.8549  -79.1618 C.3       6 UNK        -0.1791 
     42 N         -76.3678   26.0019  -78.0252 N.am      6 UNK        -0.4762 
     43 C         -76.3137   27.3131  -77.7278 C.2       6 UNK         0.5007 
     44 O         -75.6649   28.1301  -78.3841 O.2       6 UNK        -0.5032 
     45 CA        -77.0949   27.7934  -76.4837 C.3       5 UNK         0.0783 
     46 C46       -78.4768   28.3748  -76.8769 C.3       11 UNK        -0.0857 
     47 S47       -78.3642   30.1263  -77.3718 S.3       11 UNK        -0.2512 
     48 C48       -79.2993   30.9577  -76.0464 C.3       11 UNK         0.0225 
     49 N         -77.2250   26.7333  -75.4833 N.am      5 UNK        -0.4615 
     50 C         -76.2032   26.2361  -74.7731 C.2       4 UNK         0.5053 
     51 O         -75.0678   26.7129  -74.7978 O.2       4 UNK        -0.5105 
     52 CA        -76.4699   24.9924  -73.9044 C.3       4 UNK         0.0263 
     53 CB        -76.3056   25.3310  -72.4175 C.3       4 UNK        -0.1981 
     54 N         -77.7825   24.3723  -74.1095 N.am      4 UNK        -0.4224 
     55 C         -78.1735   23.7326  -75.2200 C.2       3 UNK         0.4895 
     56 O         -77.4642   23.5998  -76.2167 O.2       3 UNK        -0.5091 
     57 CA        -79.6177   23.2048  -75.2441 C.3       3 UNK         0.0250 
     58 CB        -79.7252   21.8666  -74.4956 C.3       3 UNK        -0.1996 
     59 N         -80.5849   24.1583  -74.6921 N.am      3 UNK        -0.4254 
     60 C         -80.8524   25.3680  -75.2015 C.2       2 UNK         0.5004 
     61 O         -80.3065   25.8097  -76.2118 O.2       2 UNK        -0.5226 
     62 CA        -81.8706   26.2561  -74.4622 C.3       2 UNK         0.0269 
     63 CB        -83.3121   25.9576  -74.9179 C.3       2 UNK        -0.1926 
     64 N         -81.7369   26.2352  -72.9984 N.am      2 UNK        -0.4687 
     65 C         -81.9893   25.2443  -72.1323 C.2       1 UNK         0.5165 
     66 O         -82.4813   24.1619  -72.4601 O.2       1 UNK        -0.5079 
     67 H67       -79.0110   21.7942  -70.4117 H         1 UNK         0.0900 
     68 H68       -77.9714   22.9950  -69.6409 H         1 UNK         0.0900 
     69 H69       -79.5026   22.5407  -68.8890 H         1 UNK         0.0900 
     70 H70       -81.0935   24.0424  -69.2023 H         1 UNK         0.2959 
     71 H71       -82.5531   25.3731  -70.1249 H         1 UNK         0.1079 
     72 H72       -81.8714   27.6239  -70.4606 H         1 UNK         0.0837 
     73 H73       -80.8967   26.9455  -69.2055 H         1 UNK         0.0837 
     74 H74       -80.9432   29.3746  -71.5939 H         1 UNK         0.0685 
     75 H75       -79.7500   29.7448  -70.3750 H         1 UNK         0.0685 
     76 H76       -80.5237   29.7673  -73.9191 H         1 UNK         0.1434 
     77 H77       -76.8163   31.5745  -75.0904 H         1 UNK         0.1329 
     78 H78       -77.3149   30.0898  -71.0953 H         1 UNK         0.1335 
     79 H79       -75.2703   32.2442  -73.2579 H         1 UNK         0.0680 
     80 H80       -75.3932   31.5405  -71.6677 H         1 UNK         0.0680 
     81 H81       -74.7299   29.3401  -70.9707 H         1 UNK         0.1032 
     82 H82       -75.3221   28.1827  -72.1357 H         1 UNK         0.1032 
     83 H83       -72.3565   28.6765  -71.5340 H         1 UNK         0.0461 
     84 H84       -73.0242   28.6959  -69.1844 H         1 UNK         0.3453 
     85 H85       -73.2140   27.1456  -68.4097 H         1 UNK         0.3453 
     86 H86       -73.5675   27.2464  -73.6510 H         1 UNK         0.2984 
     87 H87       -70.4432   26.0491  -74.8299 H         1 UNK         0.0554 
     88 H88       -71.6480   24.0088  -74.0348 H         1 UNK         0.0847 
     89 H89       -71.9195   24.2753  -75.7506 H         1 UNK         0.0847 
     90 H90       -73.1771   24.6796  -74.5845 H         1 UNK         0.0847 
     91 H91       -72.8917   26.5964  -76.1601 H         1 UNK         0.3141 
     92 H92       -73.5550   29.1432  -76.5291 H         1 UNK         0.0743 
     93 H93       -70.9755   30.3532  -77.6599 H         1 UNK         0.0784 
     94 H94       -72.6091   30.9316  -77.9883 H         1 UNK         0.0784 
     95 H95       -71.9541   31.0237  -76.3619 H         1 UNK         0.0784 
     96 H96       -73.6950   28.0556  -78.4397 H         1 UNK         0.3213 
     97 H97       -72.1730   27.4121  -80.9999 H         1 UNK         0.0855 
     98 H98       -71.1963   24.9466  -79.4624 H         1 UNK         0.0814 
     99 H99       -70.2524   25.9319  -80.5680 H         1 UNK         0.0814 
    100 H100      -71.5863   24.9723  -81.1821 H         1 UNK         0.0814 
    101 H101      -74.2289   26.6600  -80.7358 H         1 UNK         0.3105 
    102 H102      -76.0400   25.7984  -80.0625 H         1 UNK         0.0547 
    103 H103      -75.5472   23.3597  -80.0126 H         1 UNK         0.0837 
    104 H104      -75.6722   23.3470  -78.2599 H         1 UNK         0.0837 
    105 H105      -77.0918   23.6953  -79.2447 H         1 UNK         0.0837 
    106 H106      -76.8720   25.3860  -77.3976 H         1 UNK         0.3020 
    107 H107      -76.5020   28.5855  -76.0185 H         1 UNK         0.1245 
    108 H108      -79.1699   28.3008  -76.0382 H         1 UNK         0.0781 
    109 H109      -78.9427   27.8029  -77.6821 H         1 UNK         0.0781 
    110 H110      -80.3434   30.6462  -76.1055 H         1 UNK         0.0836 
    111 H111      -79.2919   32.0326  -76.2322 H         1 UNK         0.0836 
    112 H112      -78.1276   26.2820  -75.4207 H         1 UNK         0.3022 
    113 H113      -75.7112   24.2536  -74.1696 H         1 UNK         0.0747 
    114 H114      -75.3134   25.7333  -72.2251 H         1 UNK         0.0793 
    115 H115      -77.0335   26.0738  -72.0900 H         1 UNK         0.0793 
    116 H116      -76.4209   24.4468  -71.7906 H         1 UNK         0.0793 
    117 H117      -78.4205   24.3966  -73.3122 H         1 UNK         0.3047 
    118 H118      -79.8857   23.0327  -76.2887 H         1 UNK         0.0822 
    119 H119      -80.7261   21.4436  -74.5822 H         1 UNK         0.0807 
    120 H120      -79.4991   21.9766  -73.4344 H         1 UNK         0.0807 
    121 H121      -79.0273   21.1343  -74.9040 H         1 UNK         0.0807 
    122 H122      -81.0751   23.8888  -73.8450 H         1 UNK         0.2946 
    123 H123      -81.6461   27.2824  -74.7586 H         1 UNK         0.1144 
    124 H124      -84.0272   26.6214  -74.4322 H         1 UNK         0.0793 
    125 H125      -83.6075   24.9302  -74.7041 H         1 UNK         0.0793 
    126 H126      -83.4142   26.1028  -75.9942 H         1 UNK         0.0793 
    127 H127      -81.2479   27.0316  -72.6087 H         1 UNK         0.2896 
@<TRIPOS>BOND
     1    1    2 1    
     2    1   67 1    
     3    1   68 1    
     4    1   69 1    
     5    2    3 2    
     6    2    4 am   BACKBONE|DICT|INTERRES
     7    4    5 1    
     8    4   70 1    
     9    5    6 1    
    10    5   65 1    
    11    5   71 1    
    12    6    7 1    
    13    6   72 1    
    14    6   73 1    
    15    7    8 1    
    16    8    9 1    
    17    8   74 1    
    18    8   75 1    
    19    9   10 ar   
    20    9   14 ar   
    21   10   11 ar   
    22   10   76 1    
    23   11   12 ar   
    24   11   48 1    
    25   12   13 ar   
    26   12   77 1    
    27   13   14 ar   
    28   13   15 1    
    29   14   78 1    
    30   15   16 1    
    31   15   79 1    
    32   15   80 1    
    33   16   17 1    
    34   17   18 1    
    35   17   81 1    
    36   17   82 1    
    37   18   19 1    
    38   18   22 1    
    39   18   83 1    
    40   19   20 am   BACKBONE|DICT|INTERRES
    41   19   21 2    
    42   20   84 1    
    43   20   85 1    
    44   22   23 am   BACKBONE|DICT|INTERRES
    45   22   86 1    
    46   23   24 2    
    47   23   25 1    
    48   25   26 1    
    49   25   27 1    
    50   25   87 1    
    51   26   88 1    
    52   26   89 1    
    53   26   90 1    
    54   27   28 am   BACKBONE|DICT|INTERRES
    55   27   91 1    
    56   28   29 2    
    57   28   30 1    
    58   30   31 1    
    59   30   32 1    
    60   30   92 1    
    61   31   93 1    
    62   31   94 1    
    63   31   95 1    
    64   32   33 am   BACKBONE|DICT|INTERRES
    65   32   96 1    
    66   33   34 2    
    67   33   35 1    
    68   35   36 1    
    69   35   37 1    
    70   35   97 1    
    71   36   98 1    
    72   36   99 1    
    73   36  100 1    
    74   37   38 am   BACKBONE|DICT|INTERRES
    75   37  101 1    
    76   38   39 2    
    77   38   40 1    
    78   40   41 1    
    79   40   42 1    
    80   40  102 1    
    81   41  103 1    
    82   41  104 1    
    83   41  105 1    
    84   42   43 am   BACKBONE|DICT|INTERRES
    85   42  106 1    
    86   43   44 2    
    87   43   45 1    
    88   45   46 1    
    89   45   49 1    
    90   45  107 1    
    91   46   47 1    
    92   46  108 1    
    93   46  109 1    
    94   47   48 1    
    95   48  110 1    
    96   48  111 1    
    97   49   50 am   BACKBONE|DICT|INTERRES
    98   49  112 1    
    99   50   51 2    
   100   50   52 1    
   101   52   53 1    
   102   52   54 1    
   103   52  113 1    
   104   53  114 1    
   105   53  115 1    
   106   53  116 1    
   107   54   55 am   BACKBONE|DICT|INTERRES
   108   54  117 1    
   109   55   56 2    
   110   55   57 1    
   111   57   58 1    
   112   57   59 1    
   113   57  118 1    
   114   58  119 1    
   115   58  120 1    
   116   58  121 1    
   117   59   60 am   BACKBONE|DICT|INTERRES
   118   59  122 1    
   119   60   61 2    
   120   60   62 1    
   121   62   63 1    
   122   62   64 1    
   123   62  123 1    
   124   63  124 1    
   125   63  125 1    
   126   63  126 1    
   127   64   65 am   BACKBONE|DICT|INTERRES
   128   64  127 1    
   129   65   66 2    
@<TRIPOS>SUBSTRUCTURE
     1 UNK         1 GROUP             0       ****    0 ROOT    
