@<TRIPOS>MOLECULE
3R135
127   129    1
SMALL
USER_CHARGES


@<TRIPOS>ATOM
      1 CA        -85.0618   30.2228  -74.7514 C.3       0 UNK        -0.1998 
      2 C         -83.8253   30.8848  -74.1625 C.2       0 UNK         0.4909 
      3 O         -83.4322   31.9609  -74.6135 O.2       0 UNK        -0.5240 
      4 N         -83.2084   30.2499  -73.1578 N.am      1 UNK        -0.4739 
      5 CA        -81.9895   30.7198  -72.4852 C.3       1 UNK         0.0864 
      6 C6        -81.8555   30.1315  -71.0544 C.3       11 UNK        -0.0881 
      7 S7        -82.0158   28.3094  -70.9502 S.3       11 UNK        -0.2682 
      8 C8        -80.6272   27.8483  -69.8606 C.3       11 UNK         0.0289 
      9 C9        -79.4380   27.3291  -70.6554 C.ar      11 UNK        -0.0687 
     10 C10       -79.1632   25.9575  -70.7019 C.ar      11 UNK        -0.0823 
     11 C11       -78.0814   25.4764  -71.4461 C.ar      11 UNK        -0.0830 
     12 C12       -77.2916   26.3741  -72.1690 C.ar      11 UNK        -0.1021 
     13 C13       -77.5459   27.7464  -72.1169 C.ar      11 UNK        -0.0753 
     14 C14       -78.6106   28.2191  -71.3456 C.ar      11 UNK        -0.0933 
     15 C15       -76.7022   28.7108  -72.9322 C.3       11 UNK         0.0166 
     16 S16       -75.0353   28.9350  -72.2441 S.3       11 UNK        -0.2615 
     17 C17       -74.3549   30.2840  -73.2800 C.3       11 UNK        -0.0865 
     18 CA        -74.7263   30.2482  -74.7905 C.3       10 UNK         0.0862 
     19 C         -74.1633   31.4980  -75.5312 C.2       10 UNK         0.5551 
     20 N         -73.2977   31.3615  -76.5293 N.am      10 UNK        -0.7319 
     21 O         -74.5283   32.6210  -75.1930 O.2       10 UNK        -0.5018 
     22 N         -74.3603   28.9646  -75.4085 N.am      10 UNK        -0.4509 
     23 C         -74.9154   28.4588  -76.5180 C.2       10 UNK         0.4899 
     24 O         -75.9057   28.9462  -77.0646 O.2       10 UNK        -0.4839 
     25 CA        -74.2502   27.1997  -77.1163 C.3       9 UNK         0.0222 
     26 CB        -74.4428   27.0956  -78.6428 C.3       9 UNK        -0.1966 
     27 N         -72.8341   27.0343  -76.7568 N.am      9 UNK        -0.4218 
     28 C         -71.8251   27.8917  -76.9870 C.2       9 UNK         0.5020 
     29 O         -71.9680   28.9588  -77.5853 O.2       9 UNK        -0.5274 
     30 CA        -70.4395   27.5560  -76.3993 C.3       8 UNK         0.0270 
     31 CB        -70.0150   28.6344  -75.3859 C.3       8 UNK        -0.1976 
     32 N         -70.3911   26.2504  -75.7363 N.am      8 UNK        -0.4313 
     33 C         -70.1614   25.0834  -76.3519 C.2       8 UNK         0.5041 
     34 O         -69.8874   24.9801  -77.5479 O.2       8 UNK        -0.5577 
     35 CA        -70.2889   23.8123  -75.4900 C.3       7 UNK         0.0284 
     36 CB        -68.9221   23.4197  -74.9058 C.3       7 UNK        -0.1958 
     37 N         -71.2742   23.9157  -74.4028 N.am      7 UNK        -0.4454 
     38 C         -72.5836   24.1354  -74.5819 C.2       7 UNK         0.5089 
     39 O         -73.0959   24.3491  -75.6819 O.2       7 UNK        -0.5125 
     40 CA        -73.4605   24.1940  -73.3256 C.3       6 UNK         0.0408 
     41 CB        -73.6833   25.6554  -72.9097 C.3       6 UNK        -0.1791 
     42 N         -74.7490   23.5730  -73.6274 N.am      6 UNK        -0.4762 
     43 C         -75.0449   22.2876  -73.3848 C.2       6 UNK         0.5007 
     44 O         -74.3454   21.5459  -72.6934 O.2       6 UNK        -0.5032 
     45 CA        -76.3146   21.7133  -74.0522 C.3       5 UNK         0.0783 
     46 C46       -77.5172   21.6576  -73.0699 C.3       11 UNK        -0.0857 
     47 S47       -78.4687   23.2127  -72.9536 S.3       11 UNK        -0.2512 
     48 C48       -77.7570   23.9914  -71.4769 C.3       11 UNK         0.0225 
     49 N         -76.6437   22.4065  -75.3024 N.am      5 UNK        -0.4615 
     50 C         -75.9107   22.3829  -76.4222 C.2       4 UNK         0.5053 
     51 O         -74.9600   21.6168  -76.5834 O.2       4 UNK        -0.5105 
     52 CA        -76.2825   23.3734  -77.5475 C.3       4 UNK         0.0263 
     53 CB        -76.3399   22.6698  -78.9152 C.3       4 UNK        -0.1981 
     54 N         -77.5380   24.1100  -77.3460 N.am      4 UNK        -0.4224 
     55 C         -77.7423   25.0991  -76.4663 C.2       3 UNK         0.4895 
     56 O         -76.9073   25.4731  -75.6387 O.2       3 UNK        -0.5091 
     57 CA        -79.1304   25.7473  -76.4970 C.3       3 UNK         0.0250 
     58 CB        -80.1567   24.8908  -75.7278 C.3       3 UNK        -0.1996 
     59 N         -79.0299   27.0821  -75.9167 N.am      3 UNK        -0.4254 
     60 C         -79.9894   28.0117  -75.9129 C.2       2 UNK         0.5004 
     61 O         -81.1067   27.8612  -76.4142 O.2       2 UNK        -0.5226 
     62 CA        -79.6519   29.3429  -75.2412 C.3       2 UNK         0.0269 
     63 CB        -79.3608   30.4414  -76.2793 C.3       2 UNK        -0.1926 
     64 N         -80.7756   29.7196  -74.3915 N.am      2 UNK        -0.4687 
     65 C         -80.7051   30.5186  -73.3207 C.2       1 UNK         0.5165 
     66 O         -79.6718   31.0944  -72.9762 O.2       1 UNK        -0.5079 
     67 H67       -85.9222   30.8851  -74.6586 H         1 UNK         0.0900 
     68 H68       -85.3003   29.2851  -74.2497 H         1 UNK         0.0900 
     69 H69       -84.9061   30.0116  -75.8090 H         1 UNK         0.0900 
     70 H70       -83.5679   29.3667  -72.8214 H         1 UNK         0.2959 
     71 H71       -82.0821   31.8024  -72.3693 H         1 UNK         0.1079 
     72 H72       -80.9197   30.4568  -70.5965 H         1 UNK         0.0837 
     73 H73       -82.6394   30.5555  -70.4250 H         1 UNK         0.0837 
     74 H74       -80.9775   27.0811  -69.1685 H         1 UNK         0.0685 
     75 H75       -80.3244   28.6918  -69.2389 H         1 UNK         0.0685 
     76 H76       -79.7921   25.2633  -70.1612 H         1 UNK         0.1434 
     77 H77       -76.4811   26.0030  -72.7793 H         1 UNK         0.1329 
     78 H78       -78.8132   29.2794  -71.3017 H         1 UNK         0.1335 
     79 H79       -76.6280   28.3260  -73.9492 H         1 UNK         0.0680 
     80 H80       -77.1879   29.6862  -72.9891 H         1 UNK         0.0680 
     81 H81       -74.6911   31.2239  -72.8376 H         1 UNK         0.1032 
     82 H82       -73.2697   30.2760  -73.1623 H         1 UNK         0.1032 
     83 H83       -75.8088   30.3561  -74.8697 H         1 UNK         0.0461 
     84 H84       -72.9538   32.1871  -76.9927 H         1 UNK         0.3453 
     85 H85       -72.9757   30.4480  -76.8335 H         1 UNK         0.3453 
     86 H86       -73.5558   28.4991  -75.0190 H         1 UNK         0.2984 
     87 H87       -74.7596   26.3501  -76.6659 H         1 UNK         0.0554 
     88 H88       -73.9922   26.1849  -79.0372 H         1 UNK         0.0847 
     89 H89       -73.9994   27.9446  -79.1641 H         1 UNK         0.0847 
     90 H90       -75.5016   27.0686  -78.9032 H         1 UNK         0.0847 
     91 H91       -72.6260   26.1540  -76.2944 H         1 UNK         0.3141 
     92 H92       -69.7264   27.5666  -77.2264 H         1 UNK         0.0743 
     93 H93       -69.9883   29.6214  -75.8502 H         1 UNK         0.0784 
     94 H94       -70.7024   28.6916  -74.5410 H         1 UNK         0.0784 
     95 H95       -69.0164   28.4390  -74.9943 H         1 UNK         0.0784 
     96 H96       -70.5859   26.2333  -74.7457 H         1 UNK         0.3213 
     97 H97       -70.6194   23.0089  -76.1523 H         1 UNK         0.0855 
     98 H98       -68.5497   24.1694  -74.2065 H         1 UNK         0.0814 
     99 H99       -68.1768   23.3131  -75.6956 H         1 UNK         0.0814 
    100 H100      -68.9725   22.4651  -74.3818 H         1 UNK         0.0814 
    101 H101      -70.9315   23.7624  -73.4645 H         1 UNK         0.3105 
    102 H102      -72.9616   23.6700  -72.5077 H         1 UNK         0.0547 
    103 H103      -74.2051   26.2222  -73.6824 H         1 UNK         0.0837 
    104 H104      -74.2679   25.7190  -71.9921 H         1 UNK         0.0837 
    105 H105      -72.7362   26.1609  -72.7176 H         1 UNK         0.0837 
    106 H106      -75.3490   24.0855  -74.2624 H         1 UNK         0.3020 
    107 H107      -76.0642   20.6828  -74.3157 H         1 UNK         0.1245 
    108 H108      -77.2102   21.3309  -72.0741 H         1 UNK         0.0781 
    109 H109      -78.2143   20.8936  -73.4173 H         1 UNK         0.0781 
    110 H110      -76.6748   23.8581  -71.4657 H         1 UNK         0.0836 
    111 H111      -78.1379   23.4926  -70.5845 H         1 UNK         0.0836 
    112 H112      -77.4006   23.0725  -75.2391 H         1 UNK         0.3022 
    113 H113      -75.4728   24.1055  -77.5833 H         1 UNK         0.0747 
    114 H114      -76.5295   23.3803  -79.7200 H         1 UNK         0.0793 
    115 H115      -75.3952   22.1749  -79.1449 H         1 UNK         0.0793 
    116 H116      -77.1216   21.9097  -78.9443 H         1 UNK         0.0793 
    117 H117      -78.3004   23.8490  -77.9553 H         1 UNK         0.3047 
    118 H118      -79.4408   25.8441  -77.5395 H         1 UNK         0.0822 
    119 H119      -80.0974   23.8381  -76.0070 H         1 UNK         0.0807 
    120 H120      -81.1770   25.2153  -75.9311 H         1 UNK         0.0807 
    121 H121      -80.0019   24.9570  -74.6512 H         1 UNK         0.0807 
    122 H122      -78.1257   27.2702  -75.5010 H         1 UNK         0.2946 
    123 H123      -78.7716   29.2044  -74.6171 H         1 UNK         0.1144 
    124 H124      -78.5335   30.1525  -76.9292 H         1 UNK         0.0793 
    125 H125      -79.0814   31.3792  -75.7991 H         1 UNK         0.0793 
    126 H126      -80.2266   30.6338  -76.9139 H         1 UNK         0.0793 
    127 H127      -81.6532   29.2673  -74.6133 H         1 UNK         0.2896 
@<TRIPOS>BOND
     1    1    2 1    
     2    1   67 1    
     3    1   68 1    
     4    1   69 1    
     5    2    3 2    
     6    2    4 am   BACKBONE|DICT|INTERRES
     7    4    5 1    
     8    4   70 1    
     9    5    6 1    
    10    5   65 1    
    11    5   71 1    
    12    6    7 1    
    13    6   72 1    
    14    6   73 1    
    15    7    8 1    
    16    8    9 1    
    17    8   74 1    
    18    8   75 1    
    19    9   10 ar   
    20    9   14 ar   
    21   10   11 ar   
    22   10   76 1    
    23   11   12 ar   
    24   11   48 1    
    25   12   13 ar   
    26   12   77 1    
    27   13   14 ar   
    28   13   15 1    
    29   14   78 1    
    30   15   16 1    
    31   15   79 1    
    32   15   80 1    
    33   16   17 1    
    34   17   18 1    
    35   17   81 1    
    36   17   82 1    
    37   18   19 1    
    38   18   22 1    
    39   18   83 1    
    40   19   20 am   BACKBONE|DICT|INTERRES
    41   19   21 2    
    42   20   84 1    
    43   20   85 1    
    44   22   23 am   BACKBONE|DICT|INTERRES
    45   22   86 1    
    46   23   24 2    
    47   23   25 1    
    48   25   26 1    
    49   25   27 1    
    50   25   87 1    
    51   26   88 1    
    52   26   89 1    
    53   26   90 1    
    54   27   28 am   BACKBONE|DICT|INTERRES
    55   27   91 1    
    56   28   29 2    
    57   28   30 1    
    58   30   31 1    
    59   30   32 1    
    60   30   92 1    
    61   31   93 1    
    62   31   94 1    
    63   31   95 1    
    64   32   33 am   BACKBONE|DICT|INTERRES
    65   32   96 1    
    66   33   34 2    
    67   33   35 1    
    68   35   36 1    
    69   35   37 1    
    70   35   97 1    
    71   36   98 1    
    72   36   99 1    
    73   36  100 1    
    74   37   38 am   BACKBONE|DICT|INTERRES
    75   37  101 1    
    76   38   39 2    
    77   38   40 1    
    78   40   41 1    
    79   40   42 1    
    80   40  102 1    
    81   41  103 1    
    82   41  104 1    
    83   41  105 1    
    84   42   43 am   BACKBONE|DICT|INTERRES
    85   42  106 1    
    86   43   44 2    
    87   43   45 1    
    88   45   46 1    
    89   45   49 1    
    90   45  107 1    
    91   46   47 1    
    92   46  108 1    
    93   46  109 1    
    94   47   48 1    
    95   48  110 1    
    96   48  111 1    
    97   49   50 am   BACKBONE|DICT|INTERRES
    98   49  112 1    
    99   50   51 2    
   100   50   52 1    
   101   52   53 1    
   102   52   54 1    
   103   52  113 1    
   104   53  114 1    
   105   53  115 1    
   106   53  116 1    
   107   54   55 am   BACKBONE|DICT|INTERRES
   108   54  117 1    
   109   55   56 2    
   110   55   57 1    
   111   57   58 1    
   112   57   59 1    
   113   57  118 1    
   114   58  119 1    
   115   58  120 1    
   116   58  121 1    
   117   59   60 am   BACKBONE|DICT|INTERRES
   118   59  122 1    
   119   60   61 2    
   120   60   62 1    
   121   62   63 1    
   122   62   64 1    
   123   62  123 1    
   124   63  124 1    
   125   63  125 1    
   126   63  126 1    
   127   64   65 am   BACKBONE|DICT|INTERRES
   128   64  127 1    
   129   65   66 2    
@<TRIPOS>SUBSTRUCTURE
     1 UNK         1 GROUP             0       ****    0 ROOT    
