@<TRIPOS>MOLECULE
3R135
127   129    1
SMALL
USER_CHARGES


@<TRIPOS>ATOM
      1 CA        -78.6026   29.1610  -70.9872 C.3       0 UNK        -0.1998 
      2 C         -80.0461   28.7044  -71.1388 C.2       0 UNK         0.4909 
      3 O         -80.8188   28.7780  -70.1834 O.2       0 UNK        -0.5240 
      4 N         -80.4146   28.2388  -72.3385 N.am      1 UNK        -0.4739 
      5 CA        -81.7707   27.8077  -72.7076 C.3       1 UNK         0.0864 
      6 C6        -81.9490   27.6662  -74.2417 C.3       11 UNK        -0.0881 
      7 S7        -81.3479   29.0962  -75.2047 S.3       11 UNK        -0.2682 
      8 C8        -79.9773   28.3484  -76.1452 C.3       11 UNK         0.0289 
      9 C9        -78.6923   28.2741  -75.3321 C.ar      11 UNK        -0.0687 
     10 C10       -78.4312   27.1775  -74.5060 C.ar      11 UNK        -0.0823 
     11 C11       -77.2337   27.0876  -73.7855 C.ar      11 UNK        -0.0830 
     12 C12       -76.2844   28.1039  -73.9229 C.ar      11 UNK        -0.1021 
     13 C13       -76.5341   29.2096  -74.7412 C.ar      11 UNK        -0.0753 
     14 C14       -77.7448   29.2945  -75.4329 C.ar      11 UNK        -0.0933 
     15 C15       -75.4713   30.2753  -74.9497 C.3       11 UNK         0.0166 
     16 S16       -75.4948   31.5645  -73.6608 S.3       11 UNK        -0.2615 
     17 C17       -74.4340   30.8646  -72.3454 C.3       11 UNK        -0.0865 
     18 CA        -72.9326   31.2248  -72.5216 C.3       10 UNK         0.0862 
     19 C         -72.1008   30.8333  -71.2639 C.2       10 UNK         0.5551 
     20 N         -71.0765   29.9928  -71.3661 N.am      10 UNK        -0.7319 
     21 O         -72.3883   31.3117  -70.1695 O.2       10 UNK        -0.5018 
     22 N         -72.4043   30.6712  -73.7745 N.am      10 UNK        -0.4509 
     23 C         -71.3907   31.1634  -74.4926 C.2       10 UNK         0.4899 
     24 O         -70.7919   32.2034  -74.2143 O.2       10 UNK        -0.4839 
     25 CA        -70.9903   30.3415  -75.7367 C.3       9 UNK         0.0222 
     26 CB        -69.5267   30.5845  -76.1611 C.3       9 UNK        -0.1966 
     27 N         -71.2591   28.8992  -75.6093 N.am      9 UNK        -0.4218 
     28 C         -70.7595   28.0636  -74.6806 C.2       9 UNK         0.5020 
     29 O         -70.0331   28.4318  -73.7558 O.2       9 UNK        -0.5274 
     30 CA        -71.1579   26.5755  -74.7522 C.3       8 UNK         0.0270 
     31 CB        -72.1197   26.2315  -73.6018 C.3       8 UNK        -0.1976 
     32 N         -71.7701   26.1807  -76.0244 N.am      8 UNK        -0.4313 
     33 C         -71.1242   26.1170  -77.1999 C.2       8 UNK         0.5041 
     34 O         -69.9099   26.2885  -77.3139 O.2       8 UNK        -0.5577 
     35 CA        -71.9564   25.8467  -78.4717 C.3       7 UNK         0.0284 
     36 CB        -71.7427   24.4027  -78.9545 C.3       7 UNK        -0.1958 
     37 N         -73.3952   26.0909  -78.3273 N.am      7 UNK        -0.4454 
     38 C         -73.9692   27.2549  -77.9908 C.2       7 UNK         0.5089 
     39 O         -73.3433   28.3024  -77.8181 O.2       7 UNK        -0.5125 
     40 CA        -75.4872   27.2260  -77.7254 C.3       6 UNK         0.0408 
     41 CB        -76.2659   27.6790  -78.9691 C.3       6 UNK        -0.1791 
     42 N         -76.0217   25.9371  -77.2572 N.am      6 UNK        -0.4762 
     43 C         -75.5823   25.2348  -76.1995 C.2       6 UNK         0.5007 
     44 O         -74.6031   25.5722  -75.5327 O.2       6 UNK        -0.5032 
     45 CA        -76.3177   23.9225  -75.8542 C.3       5 UNK         0.0783 
     46 C46       -76.3104   23.5929  -74.3331 C.3       11 UNK        -0.0857 
     47 S47       -77.6594   24.3326  -73.3443 S.3       11 UNK        -0.2512 
     48 C48       -76.9543   25.9321  -72.8248 C.3       11 UNK         0.0225 
     49 N         -77.6675   23.8610  -76.4245 N.am      5 UNK        -0.4615 
     50 C         -78.0315   23.2283  -77.5442 C.2       4 UNK         0.5053 
     51 O         -77.2287   22.6962  -78.3115 O.2       4 UNK        -0.5105 
     52 CA        -79.5494   23.1593  -77.8288 C.3       4 UNK         0.0263 
     53 CB        -79.8819   22.3146  -79.0731 C.3       4 UNK        -0.1981 
     54 N         -80.2893   22.6249  -76.6775 N.am      4 UNK        -0.4224 
     55 C         -80.6088   23.3280  -75.5833 C.2       3 UNK         0.4895 
     56 O         -80.3991   24.5395  -75.4848 O.2       3 UNK        -0.5091 
     57 CA        -81.1882   22.5574  -74.3852 C.3       3 UNK         0.0250 
     58 CB        -80.3859   21.2697  -74.0887 C.3       3 UNK        -0.1996 
     59 N         -81.1525   23.4518  -73.2301 N.am      3 UNK        -0.4254 
     60 C         -81.7378   23.2774  -72.0405 C.2       2 UNK         0.5004 
     61 O         -82.4508   22.3138  -71.7579 O.2       2 UNK        -0.5226 
     62 CA        -81.4758   24.3613  -70.9785 C.3       2 UNK         0.0269 
     63 CB        -80.2690   23.9757  -70.1074 C.3       2 UNK        -0.1926 
     64 N         -81.2391   25.6854  -71.5623 N.am      2 UNK        -0.4687 
     65 C         -82.2057   26.4911  -72.0264 C.2       1 UNK         0.5165 
     66 O         -83.4050   26.2183  -71.9573 O.2       1 UNK        -0.5079 
     67 H67       -78.5607   30.1050  -70.4448 H         1 UNK         0.0900 
     68 H68       -78.1229   29.3123  -71.9542 H         1 UNK         0.0900 
     69 H69       -78.0289   28.4211  -70.4301 H         1 UNK         0.0900 
     70 H70       -79.7440   28.2431  -73.0962 H         1 UNK         0.2959 
     71 H71       -82.4588   28.5819  -72.3609 H         1 UNK         0.1079 
     72 H72       -81.4647   26.7596  -74.6041 H         1 UNK         0.0837 
     73 H73       -83.0072   27.5398  -74.4790 H         1 UNK         0.0837 
     74 H74       -79.8094   28.9470  -77.0418 H         1 UNK         0.0685 
     75 H75       -80.2589   27.3560  -76.5018 H         1 UNK         0.0685 
     76 H76       -79.1694   26.3967  -74.4185 H         1 UNK         0.1434 
     77 H77       -75.3434   28.0236  -73.3994 H         1 UNK         0.1329 
     78 H78       -77.9370   30.1420  -76.0767 H         1 UNK         0.1335 
     79 H79       -75.6249   30.7613  -75.9145 H         1 UNK         0.0680 
     80 H80       -74.4947   29.8008  -75.0205 H         1 UNK         0.0680 
     81 H81       -74.8064   31.2633  -71.3997 H         1 UNK         0.1032 
     82 H82       -74.5707   29.7862  -72.2799 H         1 UNK         0.1032 
     83 H83       -72.8657   32.3125  -72.5870 H         1 UNK         0.0461 
     84 H84       -70.8073   29.5950  -72.2589 H         1 UNK         0.3453 
     85 H85       -70.5511   29.7595  -70.5389 H         1 UNK         0.3453 
     86 H86       -72.8056   29.7967  -74.0726 H         1 UNK         0.2984 
     87 H87       -71.6305   30.6935  -76.5469 H         1 UNK         0.0554 
     88 H88       -69.2706   30.0078  -77.0499 H         1 UNK         0.0847 
     89 H89       -68.8263   30.3113  -75.3711 H         1 UNK         0.0847 
     90 H90       -69.3553   31.6352  -76.3982 H         1 UNK         0.0847 
     91 H91       -71.8760   28.5118  -76.3171 H         1 UNK         0.3141 
     92 H92       -70.2455   25.9899  -74.6221 H         1 UNK         0.0743 
     93 H93       -71.6679   26.4506  -72.6332 H         1 UNK         0.0784 
     94 H94       -73.0461   26.8035  -73.6657 H         1 UNK         0.0784 
     95 H95       -72.3808   25.1730  -73.6046 H         1 UNK         0.0784 
     96 H96       -72.7712   25.9983  -76.0011 H         1 UNK         0.3213 
     97 H97       -71.5873   26.5258  -79.2432 H         1 UNK         0.0855 
     98 H98       -72.1163   23.6762  -78.2316 H         1 UNK         0.0814 
     99 H99       -70.6825   24.1944  -79.1066 H         1 UNK         0.0814 
    100 H100      -72.2443   24.2218  -79.9054 H         1 UNK         0.0814 
    101 H101      -74.0013   25.2903  -78.4308 H         1 UNK         0.3105 
    102 H102      -75.6724   27.9500  -76.9348 H         1 UNK         0.0547 
    103 H103      -76.1660   26.9680  -79.7899 H         1 UNK         0.0837 
    104 H104      -77.3273   27.7970  -78.7502 H         1 UNK         0.0837 
    105 H105      -75.9034   28.6440  -79.3265 H         1 UNK         0.0837 
    106 H106      -76.8243   25.5756  -77.7511 H         1 UNK         0.3020 
    107 H107      -75.7090   23.1514  -76.3321 H         1 UNK         0.1245 
    108 H108      -75.3475   23.8109  -73.8677 H         1 UNK         0.0781 
    109 H109      -76.4256   22.5135  -74.2245 H         1 UNK         0.0781 
    110 H110      -75.8811   25.8151  -72.6657 H         1 UNK         0.0836 
    111 H111      -77.3791   26.1913  -71.8546 H         1 UNK         0.0836 
    112 H112      -78.3988   24.2818  -75.8605 H         1 UNK         0.3022 
    113 H113      -79.8852   24.1802  -78.0241 H         1 UNK         0.0747 
    114 H114      -80.9529   22.3137  -79.2768 H         1 UNK         0.0793 
    115 H115      -79.3867   22.7123  -79.9600 H         1 UNK         0.0793 
    116 H116      -79.5610   21.2787  -78.9565 H         1 UNK         0.0793 
    117 H117      -80.4600   21.6296  -76.6787 H         1 UNK         0.3047 
    118 H118      -82.2272   22.3080  -74.6080 H         1 UNK         0.0822 
    119 H119      -80.4524   20.5550  -74.9092 H         1 UNK         0.0807 
    120 H120      -80.7590   20.7570  -73.2024 H         1 UNK         0.0807 
    121 H121      -79.3293   21.4868  -73.9238 H         1 UNK         0.0807 
    122 H122      -80.6226   24.2980  -73.3971 H         1 UNK         0.2946 
    123 H123      -82.3588   24.4124  -70.3369 H         1 UNK         0.1144 
    124 H124      -80.4241   23.0047  -69.6350 H         1 UNK         0.0793 
    125 H125      -80.1077   24.7009  -69.3096 H         1 UNK         0.0793 
    126 H126      -79.3510   23.9095  -70.6929 H         1 UNK         0.0793 
    127 H127      -80.2812   25.9942  -71.6391 H         1 UNK         0.2896 
@<TRIPOS>BOND
     1    1    2 1    
     2    1   67 1    
     3    1   68 1    
     4    1   69 1    
     5    2    3 2    
     6    2    4 am   BACKBONE|DICT|INTERRES
     7    4    5 1    
     8    4   70 1    
     9    5    6 1    
    10    5   65 1    
    11    5   71 1    
    12    6    7 1    
    13    6   72 1    
    14    6   73 1    
    15    7    8 1    
    16    8    9 1    
    17    8   74 1    
    18    8   75 1    
    19    9   10 ar   
    20    9   14 ar   
    21   10   11 ar   
    22   10   76 1    
    23   11   12 ar   
    24   11   48 1    
    25   12   13 ar   
    26   12   77 1    
    27   13   14 ar   
    28   13   15 1    
    29   14   78 1    
    30   15   16 1    
    31   15   79 1    
    32   15   80 1    
    33   16   17 1    
    34   17   18 1    
    35   17   81 1    
    36   17   82 1    
    37   18   19 1    
    38   18   22 1    
    39   18   83 1    
    40   19   20 am   BACKBONE|DICT|INTERRES
    41   19   21 2    
    42   20   84 1    
    43   20   85 1    
    44   22   23 am   BACKBONE|DICT|INTERRES
    45   22   86 1    
    46   23   24 2    
    47   23   25 1    
    48   25   26 1    
    49   25   27 1    
    50   25   87 1    
    51   26   88 1    
    52   26   89 1    
    53   26   90 1    
    54   27   28 am   BACKBONE|DICT|INTERRES
    55   27   91 1    
    56   28   29 2    
    57   28   30 1    
    58   30   31 1    
    59   30   32 1    
    60   30   92 1    
    61   31   93 1    
    62   31   94 1    
    63   31   95 1    
    64   32   33 am   BACKBONE|DICT|INTERRES
    65   32   96 1    
    66   33   34 2    
    67   33   35 1    
    68   35   36 1    
    69   35   37 1    
    70   35   97 1    
    71   36   98 1    
    72   36   99 1    
    73   36  100 1    
    74   37   38 am   BACKBONE|DICT|INTERRES
    75   37  101 1    
    76   38   39 2    
    77   38   40 1    
    78   40   41 1    
    79   40   42 1    
    80   40  102 1    
    81   41  103 1    
    82   41  104 1    
    83   41  105 1    
    84   42   43 am   BACKBONE|DICT|INTERRES
    85   42  106 1    
    86   43   44 2    
    87   43   45 1    
    88   45   46 1    
    89   45   49 1    
    90   45  107 1    
    91   46   47 1    
    92   46  108 1    
    93   46  109 1    
    94   47   48 1    
    95   48  110 1    
    96   48  111 1    
    97   49   50 am   BACKBONE|DICT|INTERRES
    98   49  112 1    
    99   50   51 2    
   100   50   52 1    
   101   52   53 1    
   102   52   54 1    
   103   52  113 1    
   104   53  114 1    
   105   53  115 1    
   106   53  116 1    
   107   54   55 am   BACKBONE|DICT|INTERRES
   108   54  117 1    
   109   55   56 2    
   110   55   57 1    
   111   57   58 1    
   112   57   59 1    
   113   57  118 1    
   114   58  119 1    
   115   58  120 1    
   116   58  121 1    
   117   59   60 am   BACKBONE|DICT|INTERRES
   118   59  122 1    
   119   60   61 2    
   120   60   62 1    
   121   62   63 1    
   122   62   64 1    
   123   62  123 1    
   124   63  124 1    
   125   63  125 1    
   126   63  126 1    
   127   64   65 am   BACKBONE|DICT|INTERRES
   128   64  127 1    
   129   65   66 2    
@<TRIPOS>SUBSTRUCTURE
     1 UNK         1 GROUP             0       ****    0 ROOT    
