@<TRIPOS>MOLECULE
3R135
127   129    1
SMALL
USER_CHARGES


@<TRIPOS>ATOM
      1 CA        -84.7674   27.2889  -73.2107 C.3       0 UNK        -0.1998 
      2 C         -83.4136   27.9829  -73.2133 C.2       0 UNK         0.4909 
      3 O         -83.3463   29.1942  -73.4269 O.2       0 UNK        -0.5240 
      4 N         -82.3372   27.2265  -72.9665 N.am      1 UNK        -0.4739 
      5 CA        -80.9528   27.7108  -72.9865 C.3       1 UNK         0.0864 
      6 C6        -79.9819   26.7076  -72.3193 C.3       11 UNK        -0.0881 
      7 S7        -80.3692   26.3741  -70.5683 S.3       11 UNK        -0.2682 
      8 C8        -79.4088   27.6647  -69.6990 C.3       11 UNK         0.0289 
      9 C9        -77.9100   27.6555  -69.9972 C.ar      11 UNK        -0.0687 
     10 C10       -77.1955   26.4558  -70.1053 C.ar      11 UNK        -0.0823 
     11 C11       -75.8314   26.4603  -70.4211 C.ar      11 UNK        -0.0830 
     12 C12       -75.1693   27.6837  -70.5461 C.ar      11 UNK        -0.1021 
     13 C13       -75.8605   28.8910  -70.4204 C.ar      11 UNK        -0.0753 
     14 C14       -77.2330   28.8698  -70.1568 C.ar      11 UNK        -0.0933 
     15 C15       -75.1108   30.2122  -70.5337 C.3       11 UNK         0.0166 
     16 S16       -74.2551   30.3959  -72.1308 S.3       11 UNK        -0.2615 
     17 C17       -75.6175   30.9366  -73.2197 C.3       11 UNK        -0.0865 
     18 CA        -75.2182   31.0073  -74.7181 C.3       10 UNK         0.0862 
     19 C         -74.1448   32.1041  -74.9959 C.2       10 UNK         0.5551 
     20 N         -72.9300   31.7609  -75.4121 N.am      10 UNK        -0.7319 
     21 O         -74.4292   33.2892  -74.8413 O.2       10 UNK        -0.5018 
     22 N         -74.8880   29.6759  -75.2457 N.am      10 UNK        -0.4509 
     23 C         -74.8414   29.3558  -76.5456 C.2       10 UNK         0.4899 
     24 O         -75.2366   30.1034  -77.4409 O.2       10 UNK        -0.4839 
     25 CA        -74.2712   27.9696  -76.9110 C.3       9 UNK         0.0222 
     26 CB        -73.5148   27.9831  -78.2552 C.3       9 UNK        -0.1966 
     27 N         -73.4476   27.3588  -75.8594 N.am      9 UNK        -0.4218 
     28 C         -72.3048   27.8246  -75.3284 C.2       9 UNK         0.5020 
     29 O         -71.7906   28.8997  -75.6402 O.2       9 UNK        -0.5274 
     30 CA        -71.6367   26.9562  -74.2504 C.3       8 UNK         0.0270 
     31 CB        -72.2457   27.2648  -72.8753 C.3       8 UNK        -0.1976 
     32 N         -71.8093   25.5312  -74.5380 N.am      8 UNK        -0.4313 
     33 C         -70.8435   24.7043  -74.9597 C.2       8 UNK         0.5041 
     34 O         -69.6566   25.0202  -75.0550 O.2       8 UNK        -0.5577 
     35 CA        -71.2761   23.2799  -75.3624 C.3       7 UNK         0.0284 
     36 CB        -71.1974   22.3323  -74.1545 C.3       7 UNK        -0.1958 
     37 N         -72.6267   23.2291  -75.9315 N.am      7 UNK        -0.4454 
     38 C         -72.9980   23.8328  -77.0692 C.2       7 UNK         0.5089 
     39 O         -72.2071   24.3795  -77.8377 O.2       7 UNK        -0.5125 
     40 CA        -74.5015   23.8621  -77.4077 C.3       6 UNK         0.0408 
     41 CB        -74.8045   22.8507  -78.5249 C.3       6 UNK        -0.1791 
     42 N         -75.4383   23.6373  -76.2956 N.am      6 UNK        -0.4762 
     43 C         -75.4912   24.2915  -75.1239 C.2       6 UNK         0.5007 
     44 O         -74.6402   25.1061  -74.7605 O.2       6 UNK        -0.5032 
     45 CA        -76.7268   24.0028  -74.2514 C.3       5 UNK         0.0783 
     46 C46       -76.7514   24.7777  -72.9097 C.3       11 UNK        -0.0857 
     47 S47       -75.9652   23.8613  -71.5415 S.3       11 UNK        -0.2512 
     48 C48       -75.0492   25.1655  -70.6445 C.3       11 UNK         0.0225 
     49 N         -77.9104   24.3094  -75.0532 N.am      5 UNK        -0.4615 
     50 C         -78.8764   23.4411  -75.3817 C.2       4 UNK         0.5053 
     51 O         -78.9079   22.2772  -74.9828 O.2       4 UNK        -0.5105 
     52 CA        -79.9901   23.9316  -76.3296 C.3       4 UNK         0.0263 
     53 CB        -81.3005   24.1559  -75.5582 C.3       4 UNK        -0.1981 
     54 N         -79.6301   25.1508  -77.0619 N.am      4 UNK        -0.4224 
     55 C         -78.7102   25.1880  -78.0400 C.2       3 UNK         0.4895 
     56 O         -78.1756   24.1792  -78.4995 O.2       3 UNK        -0.5091 
     57 CA        -78.2764   26.5627  -78.5868 C.3       3 UNK         0.0250 
     58 CB        -78.8545   26.7889  -79.9930 C.3       3 UNK        -0.1996 
     59 N         -78.6199   27.7094  -77.7401 N.am      3 UNK        -0.4254 
     60 C         -78.2037   27.9099  -76.4824 C.2       2 UNK         0.5004 
     61 O         -77.4874   27.1184  -75.8665 O.2       2 UNK        -0.5226 
     62 CA        -78.7055   29.1769  -75.7618 C.3       2 UNK         0.0269 
     63 CB        -79.5536   30.1237  -76.6413 C.3       2 UNK        -0.1926 
     64 N         -79.4270   28.8383  -74.5298 N.am      2 UNK        -0.4687 
     65 C         -80.4762   28.0089  -74.4232 C.2       1 UNK         0.5165 
     66 O         -81.0096   27.4486  -75.3861 O.2       1 UNK        -0.5079 
     67 H67       -85.2461   27.3984  -74.1834 H         1 UNK         0.0900 
     68 H68       -84.6794   26.2244  -72.9942 H         1 UNK         0.0900 
     69 H69       -85.4169   27.7353  -72.4582 H         1 UNK         0.0900 
     70 H70       -82.4511   26.2383  -72.7950 H         1 UNK         0.2959 
     71 H71       -80.9209   28.6488  -72.4275 H         1 UNK         0.1079 
     72 H72       -80.0067   25.7530  -72.8472 H         1 UNK         0.0837 
     73 H73       -78.9510   27.0570  -72.3944 H         1 UNK         0.0837 
     74 H74       -79.5482   27.5366  -68.6249 H         1 UNK         0.0685 
     75 H75       -79.8406   28.6345  -69.9511 H         1 UNK         0.0685 
     76 H76       -77.7110   25.5140  -69.9793 H         1 UNK         0.1434 
     77 H77       -74.1082   27.7040  -70.7494 H         1 UNK         0.1329 
     78 H78       -77.7725   29.8021  -70.0589 H         1 UNK         0.1335 
     79 H79       -75.7777   31.0618  -70.3790 H         1 UNK         0.0680 
     80 H80       -74.3682   30.2572  -69.7360 H         1 UNK         0.0680 
     81 H81       -75.9758   31.9090  -72.8766 H         1 UNK         0.1032 
     82 H82       -76.4558   30.2498  -73.0940 H         1 UNK         0.1032 
     83 H83       -76.1056   31.3434  -75.2572 H         1 UNK         0.0461 
     84 H84       -72.2488   32.4807  -75.5915 H         1 UNK         0.3453 
     85 H85       -72.6744   30.7860  -75.5213 H         1 UNK         0.3453 
     86 H86       -74.5380   29.0113  -74.5720 H         1 UNK         0.2984 
     87 H87       -75.1306   27.3103  -77.0311 H         1 UNK         0.0554 
     88 H88       -74.1694   28.2898  -79.0718 H         1 UNK         0.0847 
     89 H89       -73.1311   26.9940  -78.5050 H         1 UNK         0.0847 
     90 H90       -72.6719   28.6745  -78.2369 H         1 UNK         0.0847 
     91 H91       -73.8382   26.5031  -75.4672 H         1 UNK         0.3141 
     92 H92       -70.5763   27.2151  -74.2221 H         1 UNK         0.0743 
     93 H93       -72.0929   28.3111  -72.6084 H         1 UNK         0.0784 
     94 H94       -73.3195   27.0741  -72.8640 H         1 UNK         0.0784 
     95 H95       -71.7874   26.6603  -72.0925 H         1 UNK         0.0784 
     96 H96       -72.7626   25.1792  -74.5120 H         1 UNK         0.3213 
     97 H97       -70.5780   22.9265  -76.1245 H         1 UNK         0.0855 
     98 H98       -71.8914   22.6238  -73.3649 H         1 UNK         0.0814 
     99 H99       -70.1951   22.3339  -73.7237 H         1 UNK         0.0814 
    100 H100      -71.4234   21.3047  -74.4397 H         1 UNK         0.0814 
    101 H101      -73.3459   22.7946  -75.3722 H         1 UNK         0.3105 
    102 H102      -74.7137   24.8610  -77.7935 H         1 UNK         0.0547 
    103 H103      -74.6585   21.8236  -78.1886 H         1 UNK         0.0837 
    104 H104      -74.1517   23.0076  -79.3849 H         1 UNK         0.0837 
    105 H105      -75.8292   22.9447  -78.8832 H         1 UNK         0.0837 
    106 H106      -76.1988   23.0035  -76.4993 H         1 UNK         0.3020 
    107 H107      -76.7019   22.9331  -74.0310 H         1 UNK         0.1245 
    108 H108      -77.7834   24.9225  -72.5933 H         1 UNK         0.0781 
    109 H109      -76.3378   25.7831  -73.0096 H         1 UNK         0.0781 
    110 H110      -74.1354   25.3698  -71.2043 H         1 UNK         0.0836 
    111 H111      -74.7351   24.7727  -69.6769 H         1 UNK         0.0836 
    112 H112      -77.9267   25.2475  -75.4459 H         1 UNK         0.3022 
    113 H113      -80.1646   23.1395  -77.0609 H         1 UNK         0.0747 
    114 H114      -81.1819   24.8893  -74.7622 H         1 UNK         0.0793 
    115 H115      -82.0975   24.5014  -76.2168 H         1 UNK         0.0793 
    116 H116      -81.6416   23.2293  -75.0947 H         1 UNK         0.0793 
    117 H117      -80.0316   26.0196  -76.7261 H         1 UNK         0.3047 
    118 H118      -77.1874   26.5368  -78.6660 H         1 UNK         0.0822 
    119 H119      -78.4690   27.7058  -80.4393 H         1 UNK         0.0807 
    120 H120      -79.9433   26.8536  -79.9756 H         1 UNK         0.0807 
    121 H121      -78.5877   25.9699  -80.6627 H         1 UNK         0.0807 
    122 H122      -79.2364   28.3973  -78.1479 H         1 UNK         0.2946 
    123 H123      -77.8100   29.7190  -75.4610 H         1 UNK         0.1144 
    124 H124      -79.8265   31.0236  -76.0899 H         1 UNK         0.0793 
    125 H125      -80.4795   29.6572  -76.9802 H         1 UNK         0.0793 
    126 H126      -78.9982   30.4512  -77.5214 H         1 UNK         0.0793 
    127 H127      -79.0323   29.2181  -73.6811 H         1 UNK         0.2896 
@<TRIPOS>BOND
     1    1    2 1    
     2    1   67 1    
     3    1   68 1    
     4    1   69 1    
     5    2    3 2    
     6    2    4 am   BACKBONE|DICT|INTERRES
     7    4    5 1    
     8    4   70 1    
     9    5    6 1    
    10    5   65 1    
    11    5   71 1    
    12    6    7 1    
    13    6   72 1    
    14    6   73 1    
    15    7    8 1    
    16    8    9 1    
    17    8   74 1    
    18    8   75 1    
    19    9   10 ar   
    20    9   14 ar   
    21   10   11 ar   
    22   10   76 1    
    23   11   12 ar   
    24   11   48 1    
    25   12   13 ar   
    26   12   77 1    
    27   13   14 ar   
    28   13   15 1    
    29   14   78 1    
    30   15   16 1    
    31   15   79 1    
    32   15   80 1    
    33   16   17 1    
    34   17   18 1    
    35   17   81 1    
    36   17   82 1    
    37   18   19 1    
    38   18   22 1    
    39   18   83 1    
    40   19   20 am   BACKBONE|DICT|INTERRES
    41   19   21 2    
    42   20   84 1    
    43   20   85 1    
    44   22   23 am   BACKBONE|DICT|INTERRES
    45   22   86 1    
    46   23   24 2    
    47   23   25 1    
    48   25   26 1    
    49   25   27 1    
    50   25   87 1    
    51   26   88 1    
    52   26   89 1    
    53   26   90 1    
    54   27   28 am   BACKBONE|DICT|INTERRES
    55   27   91 1    
    56   28   29 2    
    57   28   30 1    
    58   30   31 1    
    59   30   32 1    
    60   30   92 1    
    61   31   93 1    
    62   31   94 1    
    63   31   95 1    
    64   32   33 am   BACKBONE|DICT|INTERRES
    65   32   96 1    
    66   33   34 2    
    67   33   35 1    
    68   35   36 1    
    69   35   37 1    
    70   35   97 1    
    71   36   98 1    
    72   36   99 1    
    73   36  100 1    
    74   37   38 am   BACKBONE|DICT|INTERRES
    75   37  101 1    
    76   38   39 2    
    77   38   40 1    
    78   40   41 1    
    79   40   42 1    
    80   40  102 1    
    81   41  103 1    
    82   41  104 1    
    83   41  105 1    
    84   42   43 am   BACKBONE|DICT|INTERRES
    85   42  106 1    
    86   43   44 2    
    87   43   45 1    
    88   45   46 1    
    89   45   49 1    
    90   45  107 1    
    91   46   47 1    
    92   46  108 1    
    93   46  109 1    
    94   47   48 1    
    95   48  110 1    
    96   48  111 1    
    97   49   50 am   BACKBONE|DICT|INTERRES
    98   49  112 1    
    99   50   51 2    
   100   50   52 1    
   101   52   53 1    
   102   52   54 1    
   103   52  113 1    
   104   53  114 1    
   105   53  115 1    
   106   53  116 1    
   107   54   55 am   BACKBONE|DICT|INTERRES
   108   54  117 1    
   109   55   56 2    
   110   55   57 1    
   111   57   58 1    
   112   57   59 1    
   113   57  118 1    
   114   58  119 1    
   115   58  120 1    
   116   58  121 1    
   117   59   60 am   BACKBONE|DICT|INTERRES
   118   59  122 1    
   119   60   61 2    
   120   60   62 1    
   121   62   63 1    
   122   62   64 1    
   123   62  123 1    
   124   63  124 1    
   125   63  125 1    
   126   63  126 1    
   127   64   65 am   BACKBONE|DICT|INTERRES
   128   64  127 1    
   129   65   66 2    
@<TRIPOS>SUBSTRUCTURE
     1 UNK         1 GROUP             0       ****    0 ROOT    
