@<TRIPOS>MOLECULE
3R135
127   129    1
SMALL
USER_CHARGES


@<TRIPOS>ATOM
      1 CA        -83.1706   27.8443  -70.3805 C.3       0 UNK        -0.1998 
      2 C         -83.3796   27.6914  -71.8795 C.2       0 UNK         0.4909 
      3 O         -84.3131   27.0100  -72.3035 O.2       0 UNK        -0.5240 
      4 N         -82.5133   28.3205  -72.6847 N.am      1 UNK        -0.4739 
      5 CA        -82.5307   28.2699  -74.1535 C.3       1 UNK         0.0864 
      6 C6        -81.7368   29.4487  -74.7786 C.3       11 UNK        -0.0881 
      7 S7        -79.9513   29.4597  -74.3905 S.3       11 UNK        -0.2682 
      8 C8        -79.8912   30.4543  -72.8606 C.3       11 UNK         0.0289 
      9 C9        -78.8352   29.9117  -71.9079 C.ar      11 UNK        -0.0687 
     10 C10       -78.9063   28.5862  -71.4699 C.ar      11 UNK        -0.0823 
     11 C11       -77.8978   28.0442  -70.6717 C.ar      11 UNK        -0.0830 
     12 C12       -76.8284   28.8498  -70.2728 C.ar      11 UNK        -0.1021 
     13 C13       -76.7473   30.1808  -70.6949 C.ar      11 UNK        -0.0753 
     14 C14       -77.7640   30.7113  -71.4985 C.ar      11 UNK        -0.0933 
     15 C15       -75.5286   31.0165  -70.3187 C.3       11 UNK         0.0166 
     16 S16       -74.7459   31.8568  -71.7405 S.3       11 UNK        -0.2615 
     17 C17       -74.5417   30.5175  -72.9681 C.3       11 UNK        -0.0865 
     18 CA        -73.0930   29.9713  -73.0447 C.3       10 UNK         0.0862 
     19 C         -72.8512   28.8415  -72.0121 C.2       10 UNK         0.5551 
     20 N         -72.2585   29.1598  -70.8697 N.am      10 UNK        -0.7319 
     21 O         -73.2200   27.6886  -72.2236 O.2       10 UNK        -0.5018 
     22 N         -72.8085   29.4873  -74.3986 N.am      10 UNK        -0.4509 
     23 C         -71.9694   30.0500  -75.2750 C.2       10 UNK         0.4899 
     24 O         -71.3150   31.0685  -75.0443 O.2       10 UNK        -0.4839 
     25 CA        -71.8628   29.3631  -76.6509 C.3       9 UNK         0.0222 
     26 CB        -70.6745   29.8679  -77.4973 C.3       9 UNK        -0.1966 
     27 N         -71.8632   27.8999  -76.5558 N.am      9 UNK        -0.4218 
     28 C         -70.9548   27.1139  -75.9574 C.2       9 UNK         0.5020 
     29 O         -69.9220   27.5337  -75.4329 O.2       9 UNK        -0.5274 
     30 CA        -71.2411   25.5989  -75.9154 C.3       8 UNK         0.0270 
     31 CB        -71.5313   25.1530  -74.4726 C.3       8 UNK        -0.1976 
     32 N         -72.3491   25.1753  -76.7787 N.am      8 UNK        -0.4313 
     33 C         -72.2981   25.1135  -78.1167 C.2       8 UNK         0.5041 
     34 O         -71.2821   25.3441  -78.7733 O.2       8 UNK        -0.5577 
     35 CA        -73.6074   24.7721  -78.8496 C.3       7 UNK         0.0284 
     36 CB        -73.8164   23.2505  -78.9062 C.3       7 UNK        -0.1958 
     37 N         -74.7855   25.4134  -78.2554 N.am      7 UNK        -0.4454 
     38 C         -74.9968   26.7376  -78.2120 C.2       7 UNK         0.5089 
     39 O         -74.2317   27.5687  -78.7005 O.2       7 UNK        -0.5125 
     40 CA        -76.2382   27.2239  -77.4416 C.3       6 UNK         0.0408 
     41 CB        -77.5143   27.0618  -78.2809 C.3       6 UNK        -0.1791 
     42 N         -76.3964   26.5476  -76.1520 N.am      6 UNK        -0.4762 
     43 C         -75.5090   26.6245  -75.1489 C.2       6 UNK         0.5007 
     44 O         -74.5023   27.3310  -75.1867 O.2       6 UNK        -0.5032 
     45 CA        -75.7548   25.7319  -73.9191 C.3       5 UNK         0.0783 
     46 C46       -76.6923   26.4300  -72.9128 C.3       11 UNK        -0.0857 
     47 S47       -76.6904   25.6040  -71.2828 S.3       11 UNK        -0.2512 
     48 C48       -77.9215   26.5616  -70.3283 C.3       11 UNK         0.0225 
     49 N         -76.2401   24.4060  -74.3088 N.am      5 UNK        -0.4615 
     50 C         -75.5057   23.4960  -74.9614 C.2       4 UNK         0.5053 
     51 O         -74.3287   23.6642  -75.2767 O.2       4 UNK        -0.5105 
     52 CA        -76.2215   22.1998  -75.3732 C.3       4 UNK         0.0263 
     53 CB        -76.3234   21.2326  -74.1830 C.3       4 UNK        -0.1981 
     54 N         -77.5560   22.4500  -75.9234 N.am      4 UNK        -0.4224 
     55 C         -77.7915   23.1208  -77.0607 C.2       3 UNK         0.4895 
     56 O         -76.9059   23.5519  -77.7973 O.2       3 UNK        -0.5091 
     57 CA        -79.2616   23.3938  -77.4189 C.3       3 UNK         0.0250 
     58 CB        -79.8419   22.2290  -78.2364 C.3       3 UNK        -0.1996 
     59 N         -80.1124   23.6499  -76.2522 N.am      3 UNK        -0.4254 
     60 C         -79.9569   24.6755  -75.4032 C.2       2 UNK         0.5004 
     61 O         -79.0467   25.5037  -75.4815 O.2       2 UNK        -0.5226 
     62 CA        -80.9449   24.7382  -74.2284 C.3       2 UNK         0.0269 
     63 CB        -80.3103   24.1212  -72.9707 C.3       2 UNK        -0.1926 
     64 N         -81.3729   26.1032  -73.9210 N.am      2 UNK        -0.4687 
     65 C         -82.1091   26.8918  -74.7194 C.2       1 UNK         0.5165 
     66 O         -82.4953   26.5568  -75.8407 O.2       1 UNK        -0.5079 
     67 H67       -84.0492   28.2996  -69.9242 H         1 UNK         0.0900 
     68 H68       -82.3070   28.4677  -70.1489 H         1 UNK         0.0900 
     69 H69       -83.0162   26.8679  -69.9220 H         1 UNK         0.0900 
     70 H70       -81.7782   28.8808  -72.2814 H         1 UNK         0.2959 
     71 H71       -83.5720   28.3994  -74.4585 H         1 UNK         0.1079 
     72 H72       -81.8415   29.4296  -75.8651 H         1 UNK         0.0837 
     73 H73       -82.1744   30.3983  -74.4663 H         1 UNK         0.0837 
     74 H74       -80.8559   30.4585  -72.3543 H         1 UNK         0.0685 
     75 H75       -79.6825   31.4914  -73.1278 H         1 UNK         0.0685 
     76 H76       -79.7169   27.9556  -71.8039 H         1 UNK         0.1434 
     77 H77       -76.0342   28.4210  -69.6765 H         1 UNK         0.1329 
     78 H78       -77.6956   31.7352  -71.8397 H         1 UNK         0.1335 
     79 H79       -75.8291   31.7682  -69.5879 H         1 UNK         0.0680 
     80 H80       -74.7741   30.3977  -69.8304 H         1 UNK         0.0680 
     81 H81       -74.8181   30.9591  -73.9269 H         1 UNK         0.1032 
     82 H82       -75.2632   29.7135  -72.8171 H         1 UNK         0.1032 
     83 H83       -72.4023   30.7845  -72.8126 H         1 UNK         0.0461 
     84 H84       -71.9651   30.1057  -70.6819 H         1 UNK         0.3453 
     85 H85       -72.1008   28.4389  -70.1837 H         1 UNK         0.3453 
     86 H86       -73.2943   28.6296  -74.6581 H         1 UNK         0.2984 
     87 H87       -72.7769   29.6237  -77.1862 H         1 UNK         0.0554 
     88 H88       -70.7574   30.9388  -77.6864 H         1 UNK         0.0847 
     89 H89       -70.6392   29.3707  -78.4666 H         1 UNK         0.0847 
     90 H90       -69.7194   29.7007  -76.9986 H         1 UNK         0.0847 
     91 H91       -72.6901   27.4495  -76.9280 H         1 UNK         0.3141 
     92 H92       -70.3356   25.0902  -76.2525 H         1 UNK         0.0743 
     93 H93       -70.7034   25.4056  -73.8088 H         1 UNK         0.0784 
     94 H94       -72.4236   25.6380  -74.0760 H         1 UNK         0.0784 
     95 H95       -71.6784   24.0746  -74.4104 H         1 UNK         0.0784 
     96 H96       -73.2028   24.8818  -76.3097 H         1 UNK         0.3213 
     97 H97       -73.5150   25.1397  -79.8738 H         1 UNK         0.0855 
     98 H98       -73.9528   22.8239  -77.9120 H         1 UNK         0.0814 
     99 H99       -72.9578   22.7543  -79.3605 H         1 UNK         0.0814 
    100 H100      -74.6922   22.9932  -79.5022 H         1 UNK         0.0814 
    101 H101      -75.4998   24.7935  -77.8781 H         1 UNK         0.3105 
    102 H102      -76.1067   28.2884  -77.2360 H         1 UNK         0.0547 
    103 H103      -77.4456   27.6364  -79.2054 H         1 UNK         0.0837 
    104 H104      -77.6888   26.0229  -78.5578 H         1 UNK         0.0837 
    105 H105      -78.3926   27.4169  -77.7410 H         1 UNK         0.0837 
    106 H106      -77.2415   25.9980  -76.0152 H         1 UNK         0.3020 
    107 H107      -74.7838   25.6018  -73.4350 H         1 UNK         0.1245 
    108 H108      -77.7127   26.4861  -73.2964 H         1 UNK         0.0781 
    109 H109      -76.3595   27.4587  -72.7630 H         1 UNK         0.0781 
    110 H110      -78.9113   26.1409  -70.5117 H         1 UNK         0.0836 
    111 H111      -77.7285   26.4289  -69.2629 H         1 UNK         0.0836 
    112 H112      -77.2113   24.2116  -74.1201 H         1 UNK         0.3022 
    113 H113      -75.6217   21.7226  -76.1512 H         1 UNK         0.0747 
    114 H114      -75.3366   21.0223  -73.7679 H         1 UNK         0.0793 
    115 H115      -76.7562   20.2782  -74.4834 H         1 UNK         0.0793 
    116 H116      -76.9351   21.6408  -73.3773 H         1 UNK         0.0793 
    117 H117      -78.3453   22.1220  -75.3868 H         1 UNK         0.3047 
    118 H118      -79.2850   24.2897  -78.0422 H         1 UNK         0.0822 
    119 H119      -80.8521   22.4505  -78.5816 H         1 UNK         0.0807 
    120 H120      -79.8787   21.3050  -77.6578 H         1 UNK         0.0807 
    121 H121      -79.2352   22.0347  -79.1222 H         1 UNK         0.0807 
    122 H122      -80.8787   23.0079  -76.1069 H         1 UNK         0.2946 
    123 H123      -81.8380   24.1653  -74.4878 H         1 UNK         0.1144 
    124 H124      -80.0088   23.0880  -73.1483 H         1 UNK         0.0793 
    125 H125      -81.0113   24.1114  -72.1358 H         1 UNK         0.0793 
    126 H126      -79.4221   24.6699  -72.6558 H         1 UNK         0.0793 
    127 H127      -81.0972   26.4734  -73.0256 H         1 UNK         0.2896 
@<TRIPOS>BOND
     1    1    2 1    
     2    1   67 1    
     3    1   68 1    
     4    1   69 1    
     5    2    3 2    
     6    2    4 am   BACKBONE|DICT|INTERRES
     7    4    5 1    
     8    4   70 1    
     9    5    6 1    
    10    5   65 1    
    11    5   71 1    
    12    6    7 1    
    13    6   72 1    
    14    6   73 1    
    15    7    8 1    
    16    8    9 1    
    17    8   74 1    
    18    8   75 1    
    19    9   10 ar   
    20    9   14 ar   
    21   10   11 ar   
    22   10   76 1    
    23   11   12 ar   
    24   11   48 1    
    25   12   13 ar   
    26   12   77 1    
    27   13   14 ar   
    28   13   15 1    
    29   14   78 1    
    30   15   16 1    
    31   15   79 1    
    32   15   80 1    
    33   16   17 1    
    34   17   18 1    
    35   17   81 1    
    36   17   82 1    
    37   18   19 1    
    38   18   22 1    
    39   18   83 1    
    40   19   20 am   BACKBONE|DICT|INTERRES
    41   19   21 2    
    42   20   84 1    
    43   20   85 1    
    44   22   23 am   BACKBONE|DICT|INTERRES
    45   22   86 1    
    46   23   24 2    
    47   23   25 1    
    48   25   26 1    
    49   25   27 1    
    50   25   87 1    
    51   26   88 1    
    52   26   89 1    
    53   26   90 1    
    54   27   28 am   BACKBONE|DICT|INTERRES
    55   27   91 1    
    56   28   29 2    
    57   28   30 1    
    58   30   31 1    
    59   30   32 1    
    60   30   92 1    
    61   31   93 1    
    62   31   94 1    
    63   31   95 1    
    64   32   33 am   BACKBONE|DICT|INTERRES
    65   32   96 1    
    66   33   34 2    
    67   33   35 1    
    68   35   36 1    
    69   35   37 1    
    70   35   97 1    
    71   36   98 1    
    72   36   99 1    
    73   36  100 1    
    74   37   38 am   BACKBONE|DICT|INTERRES
    75   37  101 1    
    76   38   39 2    
    77   38   40 1    
    78   40   41 1    
    79   40   42 1    
    80   40  102 1    
    81   41  103 1    
    82   41  104 1    
    83   41  105 1    
    84   42   43 am   BACKBONE|DICT|INTERRES
    85   42  106 1    
    86   43   44 2    
    87   43   45 1    
    88   45   46 1    
    89   45   49 1    
    90   45  107 1    
    91   46   47 1    
    92   46  108 1    
    93   46  109 1    
    94   47   48 1    
    95   48  110 1    
    96   48  111 1    
    97   49   50 am   BACKBONE|DICT|INTERRES
    98   49  112 1    
    99   50   51 2    
   100   50   52 1    
   101   52   53 1    
   102   52   54 1    
   103   52  113 1    
   104   53  114 1    
   105   53  115 1    
   106   53  116 1    
   107   54   55 am   BACKBONE|DICT|INTERRES
   108   54  117 1    
   109   55   56 2    
   110   55   57 1    
   111   57   58 1    
   112   57   59 1    
   113   57  118 1    
   114   58  119 1    
   115   58  120 1    
   116   58  121 1    
   117   59   60 am   BACKBONE|DICT|INTERRES
   118   59  122 1    
   119   60   61 2    
   120   60   62 1    
   121   62   63 1    
   122   62   64 1    
   123   62  123 1    
   124   63  124 1    
   125   63  125 1    
   126   63  126 1    
   127   64   65 am   BACKBONE|DICT|INTERRES
   128   64  127 1    
   129   65   66 2    
@<TRIPOS>SUBSTRUCTURE
     1 UNK         1 GROUP             0       ****    0 ROOT    
