@<TRIPOS>MOLECULE
3R135
127   129    1
SMALL
USER_CHARGES


@<TRIPOS>ATOM
      1 CA        -84.2966   26.4150  -71.1587 C.3       0 UNK        -0.1998 
      2 C         -82.9857   27.1957  -71.1578 C.2       0 UNK         0.4909 
      3 O         -82.3495   27.3112  -70.1127 O.2       0 UNK        -0.5240 
      4 N         -82.5347   27.7522  -72.2905 N.am      1 UNK        -0.4739 
      5 CA        -83.1282   27.6692  -73.6327 C.3       1 UNK         0.0864 
      6 C6        -82.6431   28.8392  -74.5301 C.3       11 UNK        -0.0881 
      7 S7        -80.8402   28.8457  -74.8337 S.3       11 UNK        -0.2682 
      8 C8        -80.2457   30.0221  -73.5807 C.3       11 UNK         0.0289 
      9 C9        -78.8674   29.6115  -73.0908 C.ar      11 UNK        -0.0687 
     10 C10       -78.7407   28.6838  -72.0528 C.ar      11 UNK        -0.0823 
     11 C11       -77.4784   28.2744  -71.6152 C.ar      11 UNK        -0.0830 
     12 C12       -76.3364   28.8100  -72.2184 C.ar      11 UNK        -0.1021 
     13 C13       -76.4502   29.7379  -73.2580 C.ar      11 UNK        -0.0753 
     14 C14       -77.7191   30.1386  -73.6870 C.ar      11 UNK        -0.0933 
     15 C15       -75.2093   30.2726  -73.9544 C.3       11 UNK         0.0166 
     16 S16       -74.4279   31.6241  -73.0177 S.3       11 UNK        -0.2615 
     17 C17       -73.1235   30.7371  -72.0939 C.3       11 UNK        -0.0865 
     18 CA        -71.7479   30.8003  -72.8112 C.3       10 UNK         0.0862 
     19 C         -70.6090   30.2156  -71.9237 C.2       10 UNK         0.5551 
     20 N         -69.8227   29.2479  -72.3829 N.am      10 UNK        -0.7319 
     21 O         -70.4284   30.6585  -70.7922 O.2       10 UNK        -0.5018 
     22 N         -71.8221   30.2035  -74.1522 N.am      10 UNK        -0.4509 
     23 C         -71.0860   30.5634  -75.2082 C.2       10 UNK         0.4899 
     24 O         -70.2800   31.4953  -75.1998 O.2       10 UNK        -0.4839 
     25 CA        -71.2946   29.7260  -76.4868 C.3       9 UNK         0.0222 
     26 CB        -70.1116   29.8365  -77.4717 C.3       9 UNK        -0.1966 
     27 N         -71.6141   28.3154  -76.2181 N.am      9 UNK        -0.4218 
     28 C         -70.8610   27.4299  -75.5404 C.2       9 UNK         0.5020 
     29 O         -69.7934   27.7210  -74.9986 O.2       9 UNK        -0.5274 
     30 CA        -71.3828   25.9859  -75.4028 C.3       8 UNK         0.0270 
     31 CB        -71.6766   25.6562  -73.9290 C.3       8 UNK        -0.1976 
     32 N         -72.5746   25.7198  -76.2143 N.am      8 UNK        -0.4313 
     33 C         -72.5488   25.5176  -77.5410 C.2       8 UNK         0.5041 
     34 O         -71.5053   25.4536  -78.1925 O.2       8 UNK        -0.5577 
     35 CA        -73.8908   25.3862  -78.2883 C.3       7 UNK         0.0284 
     36 CB        -74.1373   23.9207  -78.6826 C.3       7 UNK        -0.1958 
     37 N         -75.0601   25.8921  -77.5627 N.am      7 UNK        -0.4454 
     38 C         -75.2447   27.1544  -77.1495 C.2       7 UNK         0.5089 
     39 O         -74.4364   28.0643  -77.3414 O.2       7 UNK        -0.5125 
     40 CA        -76.5059   27.4209  -76.3067 C.3       6 UNK         0.0408 
     41 CB        -77.7307   27.6375  -77.2061 C.3       6 UNK        -0.1791 
     42 N         -76.7835   26.3576  -75.3333 N.am      6 UNK        -0.4762 
     43 C         -75.9289   25.9582  -74.3771 C.2       6 UNK         0.5007 
     44 O         -74.8179   26.4603  -74.2074 O.2       6 UNK        -0.5032 
     45 CA        -76.3437   24.7423  -73.5287 C.3       5 UNK         0.0783 
     46 C46       -77.2965   25.1123  -72.3654 C.3       11 UNK        -0.0857 
     47 S47       -76.3779   25.7889  -70.9406 S.3       11 UNK        -0.2512 
     48 C48       -77.3594   27.2568  -70.4872 C.3       11 UNK         0.0225 
     49 N         -76.9031   23.6989  -74.3887 N.am      5 UNK        -0.4615 
     50 C         -76.1616   22.8434  -75.1067 C.2       4 UNK         0.5053 
     51 O         -74.9331   22.7926  -75.0522 O.2       4 UNK        -0.5105 
     52 CA        -76.9062   21.8860  -76.0550 C.3       4 UNK         0.0263 
     53 CB        -77.1821   20.5459  -75.3547 C.3       4 UNK        -0.1981 
     54 N         -78.1655   22.4333  -76.5649 N.am      4 UNK        -0.4224 
     55 C         -78.2601   23.4902  -77.3842 C.2       3 UNK         0.4895 
     56 O         -77.2899   24.0949  -77.8372 O.2       3 UNK        -0.5091 
     57 CA        -79.6777   23.9911  -77.7076 C.3       3 UNK         0.0250 
     58 CB        -80.2419   23.2564  -78.9338 C.3       3 UNK        -0.1996 
     59 N         -80.6167   23.8731  -76.5854 N.am      3 UNK        -0.4254 
     60 C         -80.4578   24.4627  -75.3925 C.2       2 UNK         0.5004 
     61 O         -79.4704   25.1349  -75.0824 O.2       2 UNK        -0.5226 
     62 CA        -81.5535   24.2168  -74.3485 C.3       2 UNK         0.0269 
     63 CB        -81.0312   23.3066  -73.2246 C.3       2 UNK        -0.1926 
     64 N         -81.9741   25.4922  -73.7763 N.am      2 UNK        -0.4687 
     65 C         -82.9033   26.2970  -74.3107 C.2       1 UNK         0.5165 
     66 O         -83.5805   25.9919  -75.2934 O.2       1 UNK        -0.5079 
     67 H67       -84.2262   25.5293  -71.7888 H         1 UNK         0.0900 
     68 H68       -85.1218   27.0345  -71.5076 H         1 UNK         0.0900 
     69 H69       -84.5407   26.0826  -70.1500 H         1 UNK         0.0900 
     70 H70       -81.6685   28.2667  -72.2551 H         1 UNK         0.2959 
     71 H71       -84.2092   27.7815  -73.5325 H         1 UNK         0.1079 
     72 H72       -83.1464   28.8023  -75.4982 H         1 UNK         0.0837 
     73 H73       -82.9395   29.7932  -74.0912 H         1 UNK         0.0837 
     74 H74       -80.2198   31.0240  -74.0119 H         1 UNK         0.0685 
     75 H75       -80.9347   30.0705  -72.7369 H         1 UNK         0.0685 
     76 H76       -79.6261   28.2710  -71.5904 H         1 UNK         0.1434 
     77 H77       -75.3601   28.4808  -71.8935 H         1 UNK         0.1329 
     78 H78       -77.8144   30.8465  -74.4989 H         1 UNK         0.1335 
     79 H79       -74.5053   29.4572  -74.1235 H         1 UNK         0.0680 
     80 H80       -75.4690   30.6486  -74.9453 H         1 UNK         0.0680 
     81 H81       -73.4192   29.7025  -71.9180 H         1 UNK         0.1032 
     82 H82       -73.0583   31.1995  -71.1071 H         1 UNK         0.1032 
     83 H83       -71.5011   31.8569  -72.9316 H         1 UNK         0.0461 
     84 H84       -69.0907   28.8912  -71.7899 H         1 UNK         0.3453 
     85 H85       -69.9299   28.8792  -73.3211 H         1 UNK         0.3453 
     86 H86       -72.4347   29.4091  -74.2508 H         1 UNK         0.2984 
     87 H87       -72.1737   30.1437  -76.9797 H         1 UNK         0.0554 
     88 H88       -70.2909   29.2517  -78.3739 H         1 UNK         0.0847 
     89 H89       -69.1800   29.4872  -77.0252 H         1 UNK         0.0847 
     90 H90       -69.9551   30.8699  -77.7832 H         1 UNK         0.0847 
     91 H91       -72.5008   27.9976  -76.5984 H         1 UNK         0.3141 
     92 H92       -70.5847   25.3208  -75.7392 H         1 UNK         0.0743 
     93 H93       -72.3570   26.3784  -73.4779 H         1 UNK         0.0784 
     94 H94       -72.1149   24.6639  -73.8191 H         1 UNK         0.0784 
     95 H95       -70.7591   25.6725  -73.3392 H         1 UNK         0.0784 
     96 H96       -73.4687   25.7832  -75.7391 H         1 UNK         0.3213 
     97 H97       -73.8009   25.9747  -79.2036 H         1 UNK         0.0855 
     98 H98       -74.2896   23.2897  -77.8063 H         1 UNK         0.0814 
     99 H99       -73.2896   23.5135  -79.2355 H         1 UNK         0.0814 
    100 H100      -75.0140   23.8236  -79.3232 H         1 UNK         0.0814 
    101 H101      -75.8157   25.2273  -77.4110 H         1 UNK         0.3105 
    102 H102      -76.3384   28.3384  -75.7434 H         1 UNK         0.0547 
    103 H103      -77.5789   28.4895  -77.8697 H         1 UNK         0.0837 
    104 H104      -77.9312   26.7690  -77.8327 H         1 UNK         0.0837 
    105 H105      -78.6245   27.8398  -76.6165 H         1 UNK         0.0837 
    106 H106      -77.6956   25.9109  -75.3844 H         1 UNK         0.3020 
    107 H107      -75.4270   24.3411  -73.0887 H         1 UNK         0.1245 
    108 H108      -77.8098   24.2193  -72.0062 H         1 UNK         0.0781 
    109 H109      -78.0828   25.7949  -72.6932 H         1 UNK         0.0781 
    110 H110      -76.8923   27.7392  -69.6277 H         1 UNK         0.0836 
    111 H111      -78.3445   26.9259  -70.1539 H         1 UNK         0.0836 
    112 H112      -77.9019   23.7374  -74.5436 H         1 UNK         0.3022 
    113 H113      -76.2527   21.6982  -76.9098 H         1 UNK         0.0747 
    114 H114      -77.6348   19.8265  -76.0374 H         1 UNK         0.0793 
    115 H115      -76.2565   20.1011  -74.9861 H         1 UNK         0.0793 
    116 H116      -77.8490   20.6654  -74.4997 H         1 UNK         0.0793 
    117 H117      -79.0179   21.9962  -76.2463 H         1 UNK         0.3047 
    118 H118      -79.6001   25.0516  -77.9542 H         1 UNK         0.0822 
    119 H119      -81.2034   23.6707  -79.2377 H         1 UNK         0.0807 
    120 H120      -80.3797   22.1916  -78.7414 H         1 UNK         0.0807 
    121 H121      -79.5683   23.3487  -79.7872 H         1 UNK         0.0807 
    122 H122      -81.4530   23.3326  -76.7552 H         1 UNK         0.2946 
    123 H123      -82.4088   23.7279  -74.8212 H         1 UNK         0.1144 
    124 H124      -80.1817   23.7504  -72.7042 H         1 UNK         0.0793 
    125 H125      -80.7062   22.3430  -73.6192 H         1 UNK         0.0793 
    126 H126      -81.8073   23.1078  -72.4853 H         1 UNK         0.0793 
    127 H127      -81.4219   25.8486  -73.0101 H         1 UNK         0.2896 
@<TRIPOS>BOND
     1    1    2 1    
     2    1   67 1    
     3    1   68 1    
     4    1   69 1    
     5    2    3 2    
     6    2    4 am   BACKBONE|DICT|INTERRES
     7    4    5 1    
     8    4   70 1    
     9    5    6 1    
    10    5   65 1    
    11    5   71 1    
    12    6    7 1    
    13    6   72 1    
    14    6   73 1    
    15    7    8 1    
    16    8    9 1    
    17    8   74 1    
    18    8   75 1    
    19    9   10 ar   
    20    9   14 ar   
    21   10   11 ar   
    22   10   76 1    
    23   11   12 ar   
    24   11   48 1    
    25   12   13 ar   
    26   12   77 1    
    27   13   14 ar   
    28   13   15 1    
    29   14   78 1    
    30   15   16 1    
    31   15   79 1    
    32   15   80 1    
    33   16   17 1    
    34   17   18 1    
    35   17   81 1    
    36   17   82 1    
    37   18   19 1    
    38   18   22 1    
    39   18   83 1    
    40   19   20 am   BACKBONE|DICT|INTERRES
    41   19   21 2    
    42   20   84 1    
    43   20   85 1    
    44   22   23 am   BACKBONE|DICT|INTERRES
    45   22   86 1    
    46   23   24 2    
    47   23   25 1    
    48   25   26 1    
    49   25   27 1    
    50   25   87 1    
    51   26   88 1    
    52   26   89 1    
    53   26   90 1    
    54   27   28 am   BACKBONE|DICT|INTERRES
    55   27   91 1    
    56   28   29 2    
    57   28   30 1    
    58   30   31 1    
    59   30   32 1    
    60   30   92 1    
    61   31   93 1    
    62   31   94 1    
    63   31   95 1    
    64   32   33 am   BACKBONE|DICT|INTERRES
    65   32   96 1    
    66   33   34 2    
    67   33   35 1    
    68   35   36 1    
    69   35   37 1    
    70   35   97 1    
    71   36   98 1    
    72   36   99 1    
    73   36  100 1    
    74   37   38 am   BACKBONE|DICT|INTERRES
    75   37  101 1    
    76   38   39 2    
    77   38   40 1    
    78   40   41 1    
    79   40   42 1    
    80   40  102 1    
    81   41  103 1    
    82   41  104 1    
    83   41  105 1    
    84   42   43 am   BACKBONE|DICT|INTERRES
    85   42  106 1    
    86   43   44 2    
    87   43   45 1    
    88   45   46 1    
    89   45   49 1    
    90   45  107 1    
    91   46   47 1    
    92   46  108 1    
    93   46  109 1    
    94   47   48 1    
    95   48  110 1    
    96   48  111 1    
    97   49   50 am   BACKBONE|DICT|INTERRES
    98   49  112 1    
    99   50   51 2    
   100   50   52 1    
   101   52   53 1    
   102   52   54 1    
   103   52  113 1    
   104   53  114 1    
   105   53  115 1    
   106   53  116 1    
   107   54   55 am   BACKBONE|DICT|INTERRES
   108   54  117 1    
   109   55   56 2    
   110   55   57 1    
   111   57   58 1    
   112   57   59 1    
   113   57  118 1    
   114   58  119 1    
   115   58  120 1    
   116   58  121 1    
   117   59   60 am   BACKBONE|DICT|INTERRES
   118   59  122 1    
   119   60   61 2    
   120   60   62 1    
   121   62   63 1    
   122   62   64 1    
   123   62  123 1    
   124   63  124 1    
   125   63  125 1    
   126   63  126 1    
   127   64   65 am   BACKBONE|DICT|INTERRES
   128   64  127 1    
   129   65   66 2    
@<TRIPOS>SUBSTRUCTURE
     1 UNK         1 GROUP             0       ****    0 ROOT    
