@<TRIPOS>MOLECULE
3R135
127   129    1
SMALL
USER_CHARGES


@<TRIPOS>ATOM
      1 CA        -77.0522   21.4407  -73.8742 C.3       0 UNK        -0.1998 
      2 C         -78.2150   21.9948  -73.0658 C.2       0 UNK         0.4909 
      3 O         -78.8652   21.2483  -72.3329 O.2       0 UNK        -0.5240 
      4 N         -78.4919   23.2972  -73.1951 N.am      1 UNK        -0.4739 
      5 CA        -79.5281   24.0247  -72.4519 C.3       1 UNK         0.0864 
      6 C6        -79.1566   25.5188  -72.2853 C.3       11 UNK        -0.0881 
      7 S7        -77.6289   25.7566  -71.3172 S.3       11 UNK        -0.2682 
      8 C8        -78.0179   27.2775  -70.3947 C.3       11 UNK         0.0289 
      9 C9        -77.7421   28.5289  -71.2175 C.ar      11 UNK        -0.0687 
     10 C10       -78.6508   28.9589  -72.1916 C.ar      11 UNK        -0.0823 
     11 C11       -78.3999   30.1196  -72.9300 C.ar      11 UNK        -0.0830 
     12 C12       -77.2432   30.8610  -72.6735 C.ar      11 UNK        -0.1021 
     13 C13       -76.3216   30.4372  -71.7128 C.ar      11 UNK        -0.0753 
     14 C14       -76.5782   29.2701  -70.9875 C.ar      11 UNK        -0.0933 
     15 C15       -75.0547   31.2428  -71.4586 C.3       11 UNK         0.0166 
     16 S16       -74.0042   31.3127  -72.9416 S.3       11 UNK        -0.2615 
     17 C17       -72.4937   32.0819  -72.2668 C.3       11 UNK        -0.0865 
     18 CA        -71.3405   32.1117  -73.3045 C.3       10 UNK         0.0862 
     19 C         -70.0966   32.8637  -72.7488 C.2       10 UNK         0.5551 
     20 N         -68.9259   32.2435  -72.6627 N.am      10 UNK        -0.7319 
     21 O         -70.1954   34.0368  -72.3970 O.2       10 UNK        -0.5018 
     22 N         -71.0577   30.7647  -73.8233 N.am      10 UNK        -0.4509 
     23 C         -70.5654   30.4756  -75.0302 C.2       10 UNK         0.4899 
     24 O         -70.2275   31.3283  -75.8517 O.2       10 UNK        -0.4839 
     25 CA        -70.4467   28.9865  -75.4083 C.3       9 UNK         0.0222 
     26 CB        -69.0520   28.4351  -75.0537 C.3       9 UNK        -0.1966 
     27 N         -71.5189   28.1185  -74.8912 N.am      9 UNK        -0.4218 
     28 C         -71.7887   27.7630  -73.6226 C.2       9 UNK         0.5020 
     29 O         -71.1534   28.1782  -72.6521 O.2       9 UNK        -0.5274 
     30 CA        -72.9722   26.8066  -73.3709 C.3       8 UNK         0.0270 
     31 CB        -74.1020   27.5230  -72.6159 C.3       8 UNK        -0.1976 
     32 N         -73.5148   26.2148  -74.5956 N.am      8 UNK        -0.4313 
     33 C         -72.9239   25.2237  -75.2800 C.2       8 UNK         0.5041 
     34 O         -71.9085   24.6437  -74.8936 O.2       8 UNK        -0.5577 
     35 CA        -73.5360   24.8234  -76.6358 C.3       7 UNK         0.0284 
     36 CB        -74.2950   23.4937  -76.5139 C.3       7 UNK        -0.1958 
     37 N         -74.4205   25.8381  -77.2173 N.am      7 UNK        -0.4454 
     38 C         -74.0307   27.0524  -77.6324 C.2       7 UNK         0.5089 
     39 O         -72.8672   27.4512  -77.5732 O.2       7 UNK        -0.5125 
     40 CA        -75.1263   27.9983  -78.1593 C.3       6 UNK         0.0408 
     41 CB        -75.2042   27.9225  -79.6919 C.3       6 UNK        -0.1791 
     42 N         -76.4596   27.7572  -77.5928 N.am      6 UNK        -0.4762 
     43 C         -76.7715   27.8505  -76.2898 C.2       6 UNK         0.5007 
     44 O         -75.9425   28.0842  -75.4108 O.2       6 UNK        -0.5032 
     45 CA        -78.2381   27.5559  -75.9056 C.3       5 UNK         0.0783 
     46 C46       -79.2199   28.7344  -76.1533 C.3       11 UNK        -0.0857 
     47 S47       -78.6697   30.4078  -75.6686 S.3       11 UNK        -0.2512 
     48 C48       -79.3731   30.5945  -73.9980 C.3       11 UNK         0.0225 
     49 N         -78.7215   26.3559  -76.5970 N.am      5 UNK        -0.4615 
     50 C         -78.2891   25.1055  -76.4080 C.2       4 UNK         0.5053 
     51 O         -77.4942   24.7848  -75.5235 O.2       4 UNK        -0.5105 
     52 CA        -78.8425   24.0470  -77.3829 C.3       4 UNK         0.0263 
     53 CB        -78.1444   22.6838  -77.2408 C.3       4 UNK        -0.1981 
     54 N         -80.2811   23.8426  -77.2266 N.am      4 UNK        -0.4224 
     55 C         -81.2613   24.6717  -77.6022 C.2       3 UNK         0.4895 
     56 O         -81.0593   25.7457  -78.1716 O.2       3 UNK        -0.5091 
     57 CA        -82.7074   24.2521  -77.2703 C.3       3 UNK         0.0250 
     58 CB        -83.3019   23.3716  -78.3868 C.3       3 UNK        -0.1996 
     59 N         -82.8688   23.6368  -75.9417 N.am      3 UNK        -0.4254 
     60 C         -82.3982   22.4645  -75.4907 C.2       2 UNK         0.5004 
     61 O         -81.7657   21.6621  -76.1802 O.2       2 UNK        -0.5226 
     62 CA        -82.5645   22.1961  -73.9861 C.3       2 UNK         0.0269 
     63 CB        -82.8602   20.7135  -73.6994 C.3       2 UNK        -0.1926 
     64 N         -81.3456   22.5867  -73.2741 N.am      2 UNK        -0.4687 
     65 C         -80.9108   23.8442  -73.1159 C.2       1 UNK         0.5165 
     66 O         -81.5529   24.8291  -73.4873 O.2       1 UNK        -0.5079 
     67 H67       -76.5720   22.2140  -74.4724 H         1 UNK         0.0900 
     68 H68       -76.3026   21.0149  -73.2079 H         1 UNK         0.0900 
     69 H69       -77.3989   20.6547  -74.5444 H         1 UNK         0.0900 
     70 H70       -77.9646   23.8562  -73.8610 H         1 UNK         0.2959 
     71 H71       -79.6106   23.5950  -71.4508 H         1 UNK         0.1079 
     72 H72       -79.9704   26.0497  -71.7884 H         1 UNK         0.0837 
     73 H73       -79.0320   25.9905  -73.2588 H         1 UNK         0.0837 
     74 H74       -77.4130   27.2882  -69.4867 H         1 UNK         0.0685 
     75 H75       -79.0554   27.2675  -70.0581 H         1 UNK         0.0685 
     76 H76       -79.5524   28.3915  -72.3737 H         1 UNK         0.1434 
     77 H77       -77.0467   31.7606  -73.2411 H         1 UNK         0.1329 
     78 H78       -75.8707   28.9368  -70.2407 H         1 UNK         0.1335 
     79 H79       -75.3227   32.2560  -71.1560 H         1 UNK         0.0680 
     80 H80       -74.4836   30.8091  -70.6361 H         1 UNK         0.0680 
     81 H81       -72.1853   31.5345  -71.3741 H         1 UNK         0.1032 
     82 H82       -72.7438   33.0931  -71.9394 H         1 UNK         0.1032 
     83 H83       -71.6879   32.7148  -74.1457 H         1 UNK         0.0461 
     84 H84       -68.8399   31.2826  -72.9523 H         1 UNK         0.3453 
     85 H85       -68.1252   32.7406  -72.3057 H         1 UNK         0.3453 
     86 H86       -71.2577   29.9863  -73.2019 H         1 UNK         0.2984 
     87 H87       -70.5458   28.9393  -76.4940 H         1 UNK         0.0554 
     88 H88       -68.2686   29.0225  -75.5344 H         1 UNK         0.0847 
     89 H89       -68.9364   27.4048  -75.3902 H         1 UNK         0.0847 
     90 H90       -68.8612   28.4605  -73.9805 H         1 UNK         0.0847 
     91 H91       -72.1290   27.7502  -75.6134 H         1 UNK         0.3141 
     92 H92       -72.6028   26.0010  -72.7329 H         1 UNK         0.0743 
     93 H93       -74.5132   28.3498  -73.1952 H         1 UNK         0.0784 
     94 H94       -74.9207   26.8422  -72.3825 H         1 UNK         0.0784 
     95 H95       -73.7449   27.9364  -71.6719 H         1 UNK         0.0784 
     96 H96       -74.3499   26.6494  -74.9747 H         1 UNK         0.3213 
     97 H97       -72.7045   24.6768  -77.3287 H         1 UNK         0.0855 
     98 H98       -75.1489   23.5815  -75.8431 H         1 UNK         0.0814 
     99 H99       -73.6492   22.7099  -76.1156 H         1 UNK         0.0814 
    100 H100      -74.6548   23.1510  -77.4839 H         1 UNK         0.0814 
    101 H101      -75.4032   25.6128  -77.2655 H         1 UNK         0.3105 
    102 H102      -74.8347   29.0139  -77.8833 H         1 UNK         0.0547 
    103 H103      -75.9008   28.6593  -80.0922 H         1 UNK         0.0837 
    104 H104      -74.2310   28.1238  -80.1423 H         1 UNK         0.0837 
    105 H105      -75.5225   26.9367  -80.0331 H         1 UNK         0.0837 
    106 H106      -77.1982   27.5407  -78.2466 H         1 UNK         0.3020 
    107 H107      -78.2280   27.3537  -74.8340 H         1 UNK         0.1245 
    108 H108      -80.1750   28.5186  -75.6722 H         1 UNK         0.0781 
    109 H109      -79.4467   28.7960  -77.2193 H         1 UNK         0.0781 
    110 H110      -80.3296   30.0752  -73.9249 H         1 UNK         0.0836 
    111 H111      -79.5914   31.6501  -73.8297 H         1 UNK         0.0836 
    112 H112      -79.4409   26.4915  -77.3011 H         1 UNK         0.3022 
    113 H113      -78.6540   24.4117  -78.3949 H         1 UNK         0.0747 
    114 H114      -78.4686   21.9924  -78.0188 H         1 UNK         0.0793 
    115 H115      -77.0627   22.7802  -77.3278 H         1 UNK         0.0793 
    116 H116      -78.3619   22.2229  -76.2781 H         1 UNK         0.0793 
    117 H117      -80.5728   22.9734  -76.7861 H         1 UNK         0.3047 
    118 H118      -83.2924   25.1727  -77.2369 H         1 UNK         0.0822 
    119 H119      -83.2745   23.8913  -79.3454 H         1 UNK         0.0807 
    120 H120      -84.3434   23.1228  -78.1831 H         1 UNK         0.0807 
    121 H121      -82.7522   22.4383  -78.5116 H         1 UNK         0.0807 
    122 H122      -83.2824   24.2503  -75.2513 H         1 UNK         0.2946 
    123 H123      -83.4012   22.7893  -73.6097 H         1 UNK         0.1144 
    124 H124      -83.0370   20.5434  -72.6372 H         1 UNK         0.0793 
    125 H125      -82.0373   20.0672  -74.0084 H         1 UNK         0.0793 
    126 H126      -83.7524   20.3838  -74.2335 H         1 UNK         0.0793 
    127 H127      -80.7283   21.8405  -72.9704 H         1 UNK         0.2896 
@<TRIPOS>BOND
     1    1    2 1    
     2    1   67 1    
     3    1   68 1    
     4    1   69 1    
     5    2    3 2    
     6    2    4 am   BACKBONE|DICT|INTERRES
     7    4    5 1    
     8    4   70 1    
     9    5    6 1    
    10    5   65 1    
    11    5   71 1    
    12    6    7 1    
    13    6   72 1    
    14    6   73 1    
    15    7    8 1    
    16    8    9 1    
    17    8   74 1    
    18    8   75 1    
    19    9   10 ar   
    20    9   14 ar   
    21   10   11 ar   
    22   10   76 1    
    23   11   12 ar   
    24   11   48 1    
    25   12   13 ar   
    26   12   77 1    
    27   13   14 ar   
    28   13   15 1    
    29   14   78 1    
    30   15   16 1    
    31   15   79 1    
    32   15   80 1    
    33   16   17 1    
    34   17   18 1    
    35   17   81 1    
    36   17   82 1    
    37   18   19 1    
    38   18   22 1    
    39   18   83 1    
    40   19   20 am   BACKBONE|DICT|INTERRES
    41   19   21 2    
    42   20   84 1    
    43   20   85 1    
    44   22   23 am   BACKBONE|DICT|INTERRES
    45   22   86 1    
    46   23   24 2    
    47   23   25 1    
    48   25   26 1    
    49   25   27 1    
    50   25   87 1    
    51   26   88 1    
    52   26   89 1    
    53   26   90 1    
    54   27   28 am   BACKBONE|DICT|INTERRES
    55   27   91 1    
    56   28   29 2    
    57   28   30 1    
    58   30   31 1    
    59   30   32 1    
    60   30   92 1    
    61   31   93 1    
    62   31   94 1    
    63   31   95 1    
    64   32   33 am   BACKBONE|DICT|INTERRES
    65   32   96 1    
    66   33   34 2    
    67   33   35 1    
    68   35   36 1    
    69   35   37 1    
    70   35   97 1    
    71   36   98 1    
    72   36   99 1    
    73   36  100 1    
    74   37   38 am   BACKBONE|DICT|INTERRES
    75   37  101 1    
    76   38   39 2    
    77   38   40 1    
    78   40   41 1    
    79   40   42 1    
    80   40  102 1    
    81   41  103 1    
    82   41  104 1    
    83   41  105 1    
    84   42   43 am   BACKBONE|DICT|INTERRES
    85   42  106 1    
    86   43   44 2    
    87   43   45 1    
    88   45   46 1    
    89   45   49 1    
    90   45  107 1    
    91   46   47 1    
    92   46  108 1    
    93   46  109 1    
    94   47   48 1    
    95   48  110 1    
    96   48  111 1    
    97   49   50 am   BACKBONE|DICT|INTERRES
    98   49  112 1    
    99   50   51 2    
   100   50   52 1    
   101   52   53 1    
   102   52   54 1    
   103   52  113 1    
   104   53  114 1    
   105   53  115 1    
   106   53  116 1    
   107   54   55 am   BACKBONE|DICT|INTERRES
   108   54  117 1    
   109   55   56 2    
   110   55   57 1    
   111   57   58 1    
   112   57   59 1    
   113   57  118 1    
   114   58  119 1    
   115   58  120 1    
   116   58  121 1    
   117   59   60 am   BACKBONE|DICT|INTERRES
   118   59  122 1    
   119   60   61 2    
   120   60   62 1    
   121   62   63 1    
   122   62   64 1    
   123   62  123 1    
   124   63  124 1    
   125   63  125 1    
   126   63  126 1    
   127   64   65 am   BACKBONE|DICT|INTERRES
   128   64  127 1    
   129   65   66 2    
@<TRIPOS>SUBSTRUCTURE
     1 UNK         1 GROUP             0       ****    0 ROOT    
