@<TRIPOS>MOLECULE
3R135
127   129    1
SMALL
USER_CHARGES


@<TRIPOS>ATOM
      1 CA        -74.6730   21.8955  -75.2298 C.3       0 UNK        -0.1998 
      2 C         -75.2164   22.4951  -73.9419 C.2       0 UNK         0.4909 
      3 O         -74.9978   21.9294  -72.8698 O.2       0 UNK        -0.5240 
      4 N         -75.9232   23.6287  -74.0371 N.am      1 UNK        -0.4739 
      5 CA        -76.6310   24.2564  -72.9184 C.3       1 UNK         0.0864 
      6 C6        -76.6869   25.7998  -73.0888 C.3       11 UNK        -0.0881 
      7 S7        -76.6428   26.6486  -71.4738 S.3       11 UNK        -0.2682 
      8 C8        -78.2317   27.5455  -71.4614 C.3       11 UNK         0.0289 
      9 C9        -78.1997   28.8068  -72.3128 C.ar      11 UNK        -0.0687 
     10 C10       -79.1888   29.0450  -73.2728 C.ar      11 UNK        -0.0823 
     11 C11       -79.1753   30.2271  -74.0219 C.ar      11 UNK        -0.0830 
     12 C12       -78.1533   31.1621  -73.8215 C.ar      11 UNK        -0.1021 
     13 C13       -77.1591   30.9305  -72.8677 C.ar      11 UNK        -0.0753 
     14 C14       -77.1988   29.7602  -72.1089 C.ar      11 UNK        -0.0933 
     15 C15       -76.0365   31.9311  -72.6465 C.3       11 UNK         0.0166 
     16 S16       -74.5300   31.3957  -73.5147 S.3       11 UNK        -0.2615 
     17 C17       -73.2174   31.8397  -72.3193 C.3       11 UNK        -0.0865 
     18 CA        -72.7616   30.6639  -71.4067 C.3       10 UNK         0.0862 
     19 C         -73.6792   30.4804  -70.1605 C.2       10 UNK         0.5551 
     20 N         -74.2339   29.3027  -69.9020 N.am      10 UNK        -0.7319 
     21 O         -73.8783   31.4270  -69.4033 O.2       10 UNK        -0.5018 
     22 N         -72.5074   29.4483  -72.1944 N.am      10 UNK        -0.4509 
     23 C         -71.7557   28.4026  -71.8298 C.2       10 UNK         0.4899 
     24 O         -71.1413   28.3327  -70.7656 O.2       10 UNK        -0.4839 
     25 CA        -71.6787   27.2324  -72.8269 C.3       9 UNK         0.0222 
     26 CB        -72.7125   26.1527  -72.4675 C.3       9 UNK        -0.1966 
     27 N         -71.8930   27.6587  -74.2126 N.am      9 UNK        -0.4218 
     28 C         -71.0108   28.3328  -74.9605 C.2       9 UNK         0.5020 
     29 O         -69.8724   28.6132  -74.5799 O.2       9 UNK        -0.5274 
     30 CA        -71.4848   28.7588  -76.3672 C.3       8 UNK         0.0270 
     31 CB        -70.3727   29.4403  -77.1874 C.3       8 UNK        -0.1976 
     32 N         -72.0369   27.6466  -77.1494 N.am      8 UNK        -0.4313 
     33 C         -73.2404   27.0912  -76.9648 C.2       8 UNK         0.5041 
     34 O         -74.0136   27.4248  -76.0635 O.2       8 UNK        -0.5577 
     35 CA        -73.6250   25.9397  -77.9018 C.3       7 UNK         0.0284 
     36 CB        -73.6695   24.6138  -77.1304 C.3       7 UNK        -0.1958 
     37 N         -74.9366   26.2043  -78.4885 N.am      7 UNK        -0.4454 
     38 C         -75.1269   26.9752  -79.5688 C.2       7 UNK         0.5089 
     39 O         -74.2058   27.4537  -80.2325 O.2       7 UNK        -0.5125 
     40 CA        -76.5785   27.2656  -80.0002 C.3       6 UNK         0.0408 
     41 CB        -76.9796   26.3531  -81.1703 C.3       6 UNK        -0.1791 
     42 N         -77.5658   27.1261  -78.9270 N.am      6 UNK        -0.4762 
     43 C         -77.6256   27.8873  -77.8230 C.2       6 UNK         0.5007 
     44 O         -76.8629   28.8306  -77.6147 O.2       6 UNK        -0.5032 
     45 CA        -78.7000   27.5170  -76.7703 C.3       5 UNK         0.0783 
     46 C46       -79.9762   28.3935  -76.8880 C.3       11 UNK        -0.0857 
     47 S47       -79.7346   30.1970  -76.7333 S.3       11 UNK        -0.2512 
     48 C48       -80.2773   30.5194  -75.0280 C.3       11 UNK         0.0225 
     49 N         -79.0945   26.1029  -76.8323 N.am      5 UNK        -0.4615 
     50 C         -78.3181   25.0241  -76.6779 C.2       4 UNK         0.5053 
     51 O         -77.1170   25.0643  -76.4042 O.2       4 UNK        -0.5105 
     52 CA        -79.0306   23.6782  -76.8930 C.3       4 UNK         0.0263 
     53 CB        -78.0674   22.4784  -76.9192 C.3       4 UNK        -0.1981 
     54 N         -80.0618   23.4641  -75.8749 N.am      4 UNK        -0.4224 
     55 C         -81.3117   23.9491  -75.9373 C.2       3 UNK         0.4895 
     56 O         -81.7164   24.6441  -76.8708 O.2       3 UNK        -0.5091 
     57 CA        -82.2746   23.6243  -74.7792 C.3       3 UNK         0.0250 
     58 CB        -83.1451   22.4080  -75.1338 C.3       3 UNK        -0.1996 
     59 N         -81.5940   23.3742  -73.5072 N.am      3 UNK        -0.4254 
     60 C         -81.0183   24.3227  -72.7568 C.2       2 UNK         0.5004 
     61 O         -81.0612   25.5249  -73.0229 O.2       2 UNK        -0.5226 
     62 CA        -80.2110   23.8616  -71.5258 C.3       2 UNK         0.0269 
     63 CB        -80.4692   22.3977  -71.0993 C.3       2 UNK        -0.1926 
     64 N         -78.7779   24.1010  -71.7394 N.am      2 UNK        -0.4687 
     65 C         -78.0385   23.6403  -72.7589 C.2       1 UNK         0.5165 
     66 O         -78.4519   22.8043  -73.5676 O.2       1 UNK        -0.5079 
     67 H67       -75.1442   22.3299  -76.1101 H         1 UNK         0.0900 
     68 H68       -73.5979   22.0589  -75.2969 H         1 UNK         0.0900 
     69 H69       -74.8571   20.8217  -75.2510 H         1 UNK         0.0900 
     70 H70       -76.1283   24.0294  -74.9472 H         1 UNK         0.2959 
     71 H71       -76.0794   24.0270  -72.0036 H         1 UNK         0.1079 
     72 H72       -75.8208   26.1526  -73.6517 H         1 UNK         0.0837 
     73 H73       -77.5534   26.1165  -73.6737 H         1 UNK         0.0837 
     74 H74       -79.0341   26.8811  -71.7816 H         1 UNK         0.0685 
     75 H75       -78.4609   27.8303  -70.4337 H         1 UNK         0.0685 
     76 H76       -79.9770   28.3192  -73.4244 H         1 UNK         0.1434 
     77 H77       -78.1337   32.0702  -74.4088 H         1 UNK         0.1329 
     78 H78       -76.4379   29.5834  -71.3635 H         1 UNK         0.1335 
     79 H79       -75.8481   32.0281  -71.5766 H         1 UNK         0.0680 
     80 H80       -76.3231   32.9226  -73.0002 H         1 UNK         0.0680 
     81 H81       -72.3605   32.1763  -72.9049 H         1 UNK         0.1032 
     82 H82       -73.5165   32.7125  -71.7356 H         1 UNK         0.1032 
     83 H83       -71.7980   30.9586  -70.9868 H         1 UNK         0.0461 
     84 H84       -74.0700   28.5172  -70.5096 H         1 UNK         0.3453 
     85 H85       -74.8121   29.1982  -69.0838 H         1 UNK         0.3453 
     86 H86       -72.9961   29.4049  -73.0770 H         1 UNK         0.2984 
     87 H87       -70.6822   26.7924  -72.7514 H         1 UNK         0.0554 
     88 H88       -72.6484   25.2973  -73.1403 H         1 UNK         0.0847 
     89 H89       -73.7301   26.5401  -72.5152 H         1 UNK         0.0847 
     90 H90       -72.5536   25.7805  -71.4545 H         1 UNK         0.0847 
     91 H91       -72.8035   27.4747  -74.6324 H         1 UNK         0.3141 
     92 H92       -72.2778   29.4953  -76.2177 H         1 UNK         0.0743 
     93 H93       -69.5355   28.7659  -77.3721 H         1 UNK         0.0784 
     94 H94       -70.7454   29.7865  -78.1517 H         1 UNK         0.0784 
     95 H95       -69.9794   30.3135  -76.6647 H         1 UNK         0.0784 
     96 H96       -71.4461   27.2848  -77.8849 H         1 UNK         0.3213 
     97 H97       -72.8822   25.8466  -78.6974 H         1 UNK         0.0855 
     98 H98       -74.3742   24.6634  -76.3003 H         1 UNK         0.0814 
     99 H99       -72.6915   24.3704  -76.7135 H         1 UNK         0.0814 
    100 H100      -73.9640   23.7879  -77.7779 H         1 UNK         0.0814 
    101 H101      -75.7405   25.9150  -77.9437 H         1 UNK         0.3105 
    102 H102      -76.6125   28.3002  -80.3477 H         1 UNK         0.0547 
    103 H103      -77.9703   26.6038  -81.5501 H         1 UNK         0.0837 
    104 H104      -76.2817   26.4565  -82.0025 H         1 UNK         0.0837 
    105 H105      -76.9849   25.3018  -80.8799 H         1 UNK         0.0837 
    106 H106      -78.2347   26.3760  -79.0206 H         1 UNK         0.3020 
    107 H107      -78.2477   27.6872  -75.7906 H         1 UNK         0.1245 
    108 H108      -80.7054   28.0767  -76.1405 H         1 UNK         0.0781 
    109 H109      -80.4568   28.2166  -77.8521 H         1 UNK         0.0781 
    110 H110      -81.1790   29.9482  -74.8020 H         1 UNK         0.0836 
    111 H111      -80.5635   31.5693  -74.9487 H         1 UNK         0.0836 
    112 H112      -80.0753   25.9266  -77.0221 H         1 UNK         0.3022 
    113 H113      -79.5036   23.7224  -77.8766 H         1 UNK         0.0747 
    114 H114      -77.5915   22.3160  -75.9544 H         1 UNK         0.0793 
    115 H115      -78.5912   21.5606  -77.1864 H         1 UNK         0.0793 
    116 H116      -77.2767   22.6253  -77.6562 H         1 UNK         0.0793 
    117 H117      -79.7539   22.9936  -75.0282 H         1 UNK         0.3047 
    118 H118      -82.9322   24.4871  -74.6510 H         1 UNK         0.0822 
    119 H119      -83.6890   22.5758  -76.0646 H         1 UNK         0.0807 
    120 H120      -83.8864   22.2107  -74.3592 H         1 UNK         0.0807 
    121 H121      -82.5462   21.5058  -75.2648 H         1 UNK         0.0807 
    122 H122      -81.4854   22.4100  -73.2272 H         1 UNK         0.2946 
    123 H123      -80.5225   24.5061  -70.7019 H         1 UNK         0.1144 
    124 H124      -79.9382   22.1648  -70.1763 H         1 UNK         0.0793 
    125 H125      -80.1455   21.6762  -71.8500 H         1 UNK         0.0793 
    126 H126      -81.5291   22.2253  -70.9069 H         1 UNK         0.0793 
    127 H127      -78.3580   24.7997  -71.1406 H         1 UNK         0.2896 
@<TRIPOS>BOND
     1    1    2 1    
     2    1   67 1    
     3    1   68 1    
     4    1   69 1    
     5    2    3 2    
     6    2    4 am   BACKBONE|DICT|INTERRES
     7    4    5 1    
     8    4   70 1    
     9    5    6 1    
    10    5   65 1    
    11    5   71 1    
    12    6    7 1    
    13    6   72 1    
    14    6   73 1    
    15    7    8 1    
    16    8    9 1    
    17    8   74 1    
    18    8   75 1    
    19    9   10 ar   
    20    9   14 ar   
    21   10   11 ar   
    22   10   76 1    
    23   11   12 ar   
    24   11   48 1    
    25   12   13 ar   
    26   12   77 1    
    27   13   14 ar   
    28   13   15 1    
    29   14   78 1    
    30   15   16 1    
    31   15   79 1    
    32   15   80 1    
    33   16   17 1    
    34   17   18 1    
    35   17   81 1    
    36   17   82 1    
    37   18   19 1    
    38   18   22 1    
    39   18   83 1    
    40   19   20 am   BACKBONE|DICT|INTERRES
    41   19   21 2    
    42   20   84 1    
    43   20   85 1    
    44   22   23 am   BACKBONE|DICT|INTERRES
    45   22   86 1    
    46   23   24 2    
    47   23   25 1    
    48   25   26 1    
    49   25   27 1    
    50   25   87 1    
    51   26   88 1    
    52   26   89 1    
    53   26   90 1    
    54   27   28 am   BACKBONE|DICT|INTERRES
    55   27   91 1    
    56   28   29 2    
    57   28   30 1    
    58   30   31 1    
    59   30   32 1    
    60   30   92 1    
    61   31   93 1    
    62   31   94 1    
    63   31   95 1    
    64   32   33 am   BACKBONE|DICT|INTERRES
    65   32   96 1    
    66   33   34 2    
    67   33   35 1    
    68   35   36 1    
    69   35   37 1    
    70   35   97 1    
    71   36   98 1    
    72   36   99 1    
    73   36  100 1    
    74   37   38 am   BACKBONE|DICT|INTERRES
    75   37  101 1    
    76   38   39 2    
    77   38   40 1    
    78   40   41 1    
    79   40   42 1    
    80   40  102 1    
    81   41  103 1    
    82   41  104 1    
    83   41  105 1    
    84   42   43 am   BACKBONE|DICT|INTERRES
    85   42  106 1    
    86   43   44 2    
    87   43   45 1    
    88   45   46 1    
    89   45   49 1    
    90   45  107 1    
    91   46   47 1    
    92   46  108 1    
    93   46  109 1    
    94   47   48 1    
    95   48  110 1    
    96   48  111 1    
    97   49   50 am   BACKBONE|DICT|INTERRES
    98   49  112 1    
    99   50   51 2    
   100   50   52 1    
   101   52   53 1    
   102   52   54 1    
   103   52  113 1    
   104   53  114 1    
   105   53  115 1    
   106   53  116 1    
   107   54   55 am   BACKBONE|DICT|INTERRES
   108   54  117 1    
   109   55   56 2    
   110   55   57 1    
   111   57   58 1    
   112   57   59 1    
   113   57  118 1    
   114   58  119 1    
   115   58  120 1    
   116   58  121 1    
   117   59   60 am   BACKBONE|DICT|INTERRES
   118   59  122 1    
   119   60   61 2    
   120   60   62 1    
   121   62   63 1    
   122   62   64 1    
   123   62  123 1    
   124   63  124 1    
   125   63  125 1    
   126   63  126 1    
   127   64   65 am   BACKBONE|DICT|INTERRES
   128   64  127 1    
   129   65   66 2    
@<TRIPOS>SUBSTRUCTURE
     1 UNK         1 GROUP             0       ****    0 ROOT    
