@<TRIPOS>MOLECULE
3R135
127   129    1
SMALL
USER_CHARGES


@<TRIPOS>ATOM
      1 CA        -79.1484   29.2023  -75.4296 C.3       0 UNK        -0.1998 
      2 C         -80.3327   28.7220  -74.6049 C.2       0 UNK         0.4909 
      3 O         -81.4794   28.9210  -75.0063 O.2       0 UNK        -0.5240 
      4 N         -80.0512   28.0840  -73.4604 N.am      1 UNK        -0.4739 
      5 CA        -81.0148   27.5465  -72.4839 C.3       1 UNK         0.0864 
      6 C6        -81.8399   28.6373  -71.7425 C.3       11 UNK        -0.0881 
      7 S7        -80.8935   30.0769  -71.1193 S.3       11 UNK        -0.2682 
      8 C8        -79.6400   29.3520  -70.0041 C.3       11 UNK         0.0289 
      9 C9        -78.4199   28.8137  -70.7463 C.ar      11 UNK        -0.0687 
     10 C10       -77.9693   27.5112  -70.5055 C.ar      11 UNK        -0.0823 
     11 C11       -76.8807   26.9925  -71.2141 C.ar      11 UNK        -0.0830 
     12 C12       -76.2298   27.7947  -72.1552 C.ar      11 UNK        -0.1021 
     13 C13       -76.6559   29.1021  -72.3940 C.ar      11 UNK        -0.0753 
     14 C14       -77.7421   29.6113  -71.6768 C.ar      11 UNK        -0.0933 
     15 C15       -75.9605   29.9483  -73.4488 C.3       11 UNK         0.0166 
     16 S16       -74.3997   30.6468  -72.8327 S.3       11 UNK        -0.2615 
     17 C17       -74.0081   31.7775  -74.2125 C.3       11 UNK        -0.0865 
     18 CA        -72.5639   32.3426  -74.1905 C.3       10 UNK         0.0862 
     19 C         -72.3319   33.3570  -73.0313 C.2       10 UNK         0.5551 
     20 N         -71.3649   33.1466  -72.1461 N.am      10 UNK        -0.7319 
     21 O         -73.0319   34.3633  -72.9466 O.2       10 UNK        -0.5018 
     22 N         -71.5614   31.2698  -74.2937 N.am      10 UNK        -0.4509 
     23 C         -70.3452   31.4104  -74.8379 C.2       10 UNK         0.4899 
     24 O         -69.9337   32.4642  -75.3244 O.2       10 UNK        -0.4839 
     25 CA        -69.4154   30.1806  -74.8433 C.3       9 UNK         0.0222 
     26 CB        -68.3122   30.3421  -73.7838 C.3       9 UNK        -0.1966 
     27 N         -70.0944   28.8967  -74.6337 N.am      9 UNK        -0.4218 
     28 C         -70.9354   28.3170  -75.5006 C.2       9 UNK         0.5020 
     29 O         -71.2577   28.8101  -76.5850 O.2       9 UNK        -0.5274 
     30 CA        -71.5193   26.9668  -75.0665 C.3       8 UNK         0.0270 
     31 CB        -72.4835   27.1336  -73.8761 C.3       8 UNK        -0.1976 
     32 N         -72.2382   26.3679  -76.1870 N.am      8 UNK        -0.4313 
     33 C         -72.3427   25.0638  -76.4582 C.2       8 UNK         0.5041 
     34 O         -71.8023   24.1809  -75.7881 O.2       8 UNK        -0.5577 
     35 CA        -73.2280   24.6903  -77.6664 C.3       7 UNK         0.0284 
     36 CB        -73.1461   23.1945  -78.0242 C.3       7 UNK        -0.1958 
     37 N         -74.6263   25.0330  -77.4021 N.am      7 UNK        -0.4454 
     38 C         -75.1416   26.2688  -77.4443 C.2       7 UNK         0.5089 
     39 O         -74.5225   27.2454  -77.8693 O.2       7 UNK        -0.5125 
     40 CA        -76.5644   26.4697  -76.8874 C.3       6 UNK         0.0408 
     41 CB        -77.5768   26.5972  -78.0363 C.3       6 UNK        -0.1791 
     42 N         -77.0282   25.4300  -75.9618 N.am      6 UNK        -0.4762 
     43 C         -76.4386   25.0590  -74.8144 C.2       6 UNK         0.5007 
     44 O         -75.3821   25.5315  -74.4031 O.2       6 UNK        -0.5032 
     45 CA        -77.1452   23.9628  -73.9948 C.3       5 UNK         0.0783 
     46 C46       -78.1468   24.5851  -72.9804 C.3       11 UNK        -0.0857 
     47 S47       -77.6775   24.3052  -71.2427 S.3       11 UNK        -0.2512 
     48 C48       -76.3934   25.5710  -70.9622 C.3       11 UNK         0.0225 
     49 N         -77.7881   22.9728  -74.8658 N.am      5 UNK        -0.4615 
     50 C         -77.1408   22.0436  -75.5821 C.2       4 UNK         0.5053 
     51 O         -75.9177   21.9087  -75.5788 O.2       4 UNK        -0.5105 
     52 CA        -78.0012   21.1041  -76.4463 C.3       4 UNK         0.0263 
     53 CB        -78.3733   19.8406  -75.6537 C.3       4 UNK        -0.1981 
     54 N         -79.2245   21.7463  -76.9355 N.am      4 UNK        -0.4224 
     55 C         -79.2611   22.6254  -77.9470 C.2       3 UNK         0.4895 
     56 O         -78.2808   22.9312  -78.6259 O.2       3 UNK        -0.5091 
     57 CA        -80.6153   23.3062  -78.2259 C.3       3 UNK         0.0250 
     58 CB        -81.4619   22.4521  -79.1834 C.3       3 UNK        -0.1996 
     59 N         -81.3962   23.6133  -77.0181 N.am      3 UNK        -0.4254 
     60 C         -80.9657   24.3966  -76.0203 C.2       2 UNK         0.5004 
     61 O         -79.8412   24.9069  -75.9949 O.2       2 UNK        -0.5226 
     62 CA        -81.9136   24.6176  -74.8337 C.3       2 UNK         0.0269 
     63 CB        -82.0857   23.3306  -74.0031 C.3       2 UNK        -0.1926 
     64 N         -81.3201   25.6739  -74.0229 N.am      2 UNK        -0.4687 
     65 C         -81.8978   26.4227  -73.0794 C.2       1 UNK         0.5165 
     66 O         -83.0554   26.2574  -72.6902 O.2       1 UNK        -0.5079 
     67 H67       -79.2921   28.9486  -76.4794 H         1 UNK         0.0900 
     68 H68       -78.2160   28.7472  -75.0982 H         1 UNK         0.0900 
     69 H69       -79.0501   30.2845  -75.3495 H         1 UNK         0.0900 
     70 H70       -79.0840   28.0084  -73.1754 H         1 UNK         0.2959 
     71 H71       -80.4168   27.0355  -71.7302 H         1 UNK         0.1079 
     72 H72       -82.6121   29.0297  -72.4067 H         1 UNK         0.0837 
     73 H73       -82.3715   28.1953  -70.8977 H         1 UNK         0.0837 
     74 H74       -79.3047   30.1250  -69.3116 H         1 UNK         0.0685 
     75 H75       -80.1086   28.5765  -69.3964 H         1 UNK         0.0685 
     76 H76       -78.4747   26.8898  -69.7786 H         1 UNK         0.1434 
     77 H77       -75.3829   27.4071  -72.7038 H         1 UNK         0.1329 
     78 H78       -78.0801   30.6220  -71.8611 H         1 UNK         0.1335 
     79 H79       -75.7578   29.3405  -74.3324 H         1 UNK         0.0680 
     80 H80       -76.6162   30.7579  -73.7735 H         1 UNK         0.0680 
     81 H81       -74.7357   32.5916  -74.2150 H         1 UNK         0.1032 
     82 H82       -74.1651   31.2435  -75.1513 H         1 UNK         0.1032 
     83 H83       -72.4718   32.9437  -75.0975 H         1 UNK         0.0461 
     84 H84       -71.2189   33.8125  -71.4039 H         1 UNK         0.3453 
     85 H85       -70.7871   32.3247  -72.2109 H         1 UNK         0.3453 
     86 H86       -71.8226   30.3809  -73.8945 H         1 UNK         0.2984 
     87 H87       -68.9381   30.1460  -75.8250 H         1 UNK         0.0554 
     88 H88       -67.5847   29.5321  -73.8399 H         1 UNK         0.0847 
     89 H89       -68.7202   30.3590  -72.7724 H         1 UNK         0.0847 
     90 H90       -67.7638   31.2743  -73.9283 H         1 UNK         0.0847 
     91 H91       -69.8895   28.4170  -73.7683 H         1 UNK         0.3141 
     92 H92       -70.6876   26.3209  -74.7772 H         1 UNK         0.0743 
     93 H93       -71.9901   27.5831  -73.0140 H         1 UNK         0.0784 
     94 H94       -73.3340   27.7659  -74.1353 H         1 UNK         0.0784 
     95 H95       -72.8757   26.1697  -73.5516 H         1 UNK         0.0784 
     96 H96       -72.6917   27.0329  -76.8078 H         1 UNK         0.3213 
     97 H97       -72.8744   25.2619  -78.5274 H         1 UNK         0.0855 
     98 H98       -72.1177   22.9001  -78.2379 H         1 UNK         0.0814 
     99 H99       -73.7391   22.9654  -78.9097 H         1 UNK         0.0814 
    100 H100      -73.5044   22.5637  -77.2091 H         1 UNK         0.0814 
    101 H101      -75.1970   24.3066  -76.9929 H         1 UNK         0.3105 
    102 H102      -76.5561   27.4095  -76.3327 H         1 UNK         0.0547 
    103 H103      -77.2968   27.4009  -78.7186 H         1 UNK         0.0837 
    104 H104      -77.6371   25.6781  -78.6205 H         1 UNK         0.0837 
    105 H105      -78.5766   26.8212  -77.6646 H         1 UNK         0.0837 
    106 H106      -77.9392   25.0275  -76.1685 H         1 UNK         0.3020 
    107 H107      -76.3571   23.4392  -73.4478 H         1 UNK         0.1245 
    108 H108      -79.1346   24.1403  -73.0963 H         1 UNK         0.0781 
    109 H109      -78.3071   25.6527  -73.1402 H         1 UNK         0.0781 
    110 H110      -75.5303   25.3394  -71.5887 H         1 UNK         0.0836 
    111 H111      -76.0473   25.4963  -69.9306 H         1 UNK         0.0836 
    112 H112      -78.7864   23.0584  -74.9800 H         1 UNK         0.3022 
    113 H113      -77.3988   20.8007  -77.3056 H         1 UNK         0.0747 
    114 H114      -78.9257   19.1328  -76.2722 H         1 UNK         0.0793 
    115 H115      -77.4791   19.3272  -75.2972 H         1 UNK         0.0793 
    116 H116      -78.9846   20.0736  -74.7809 H         1 UNK         0.0793 
    117 H117      -80.0835   21.5362  -76.4484 H         1 UNK         0.3047 
    118 H118      -80.3988   24.2559  -78.7201 H         1 UNK         0.0822 
    119 H119      -82.3736   22.9719  -79.4788 H         1 UNK         0.0807 
    120 H120      -81.7477   21.5006  -78.7332 H         1 UNK         0.0807 
    121 H121      -80.9100   22.2274  -80.0974 H         1 UNK         0.0807 
    122 H122      -82.3263   23.2220  -76.9678 H         1 UNK         0.2946 
    123 H123      -82.8799   24.9578  -75.2122 H         1 UNK         0.1144 
    124 H124      -82.7288   23.4978  -73.1390 H         1 UNK         0.0793 
    125 H125      -81.1322   22.9497  -73.6373 H         1 UNK         0.0793 
    126 H126      -82.5484   22.5390  -74.5933 H         1 UNK         0.0793 
    127 H127      -80.3908   25.9271  -74.3379 H         1 UNK         0.2896 
@<TRIPOS>BOND
     1    1    2 1    
     2    1   67 1    
     3    1   68 1    
     4    1   69 1    
     5    2    3 2    
     6    2    4 am   BACKBONE|DICT|INTERRES
     7    4    5 1    
     8    4   70 1    
     9    5    6 1    
    10    5   65 1    
    11    5   71 1    
    12    6    7 1    
    13    6   72 1    
    14    6   73 1    
    15    7    8 1    
    16    8    9 1    
    17    8   74 1    
    18    8   75 1    
    19    9   10 ar   
    20    9   14 ar   
    21   10   11 ar   
    22   10   76 1    
    23   11   12 ar   
    24   11   48 1    
    25   12   13 ar   
    26   12   77 1    
    27   13   14 ar   
    28   13   15 1    
    29   14   78 1    
    30   15   16 1    
    31   15   79 1    
    32   15   80 1    
    33   16   17 1    
    34   17   18 1    
    35   17   81 1    
    36   17   82 1    
    37   18   19 1    
    38   18   22 1    
    39   18   83 1    
    40   19   20 am   BACKBONE|DICT|INTERRES
    41   19   21 2    
    42   20   84 1    
    43   20   85 1    
    44   22   23 am   BACKBONE|DICT|INTERRES
    45   22   86 1    
    46   23   24 2    
    47   23   25 1    
    48   25   26 1    
    49   25   27 1    
    50   25   87 1    
    51   26   88 1    
    52   26   89 1    
    53   26   90 1    
    54   27   28 am   BACKBONE|DICT|INTERRES
    55   27   91 1    
    56   28   29 2    
    57   28   30 1    
    58   30   31 1    
    59   30   32 1    
    60   30   92 1    
    61   31   93 1    
    62   31   94 1    
    63   31   95 1    
    64   32   33 am   BACKBONE|DICT|INTERRES
    65   32   96 1    
    66   33   34 2    
    67   33   35 1    
    68   35   36 1    
    69   35   37 1    
    70   35   97 1    
    71   36   98 1    
    72   36   99 1    
    73   36  100 1    
    74   37   38 am   BACKBONE|DICT|INTERRES
    75   37  101 1    
    76   38   39 2    
    77   38   40 1    
    78   40   41 1    
    79   40   42 1    
    80   40  102 1    
    81   41  103 1    
    82   41  104 1    
    83   41  105 1    
    84   42   43 am   BACKBONE|DICT|INTERRES
    85   42  106 1    
    86   43   44 2    
    87   43   45 1    
    88   45   46 1    
    89   45   49 1    
    90   45  107 1    
    91   46   47 1    
    92   46  108 1    
    93   46  109 1    
    94   47   48 1    
    95   48  110 1    
    96   48  111 1    
    97   49   50 am   BACKBONE|DICT|INTERRES
    98   49  112 1    
    99   50   51 2    
   100   50   52 1    
   101   52   53 1    
   102   52   54 1    
   103   52  113 1    
   104   53  114 1    
   105   53  115 1    
   106   53  116 1    
   107   54   55 am   BACKBONE|DICT|INTERRES
   108   54  117 1    
   109   55   56 2    
   110   55   57 1    
   111   57   58 1    
   112   57   59 1    
   113   57  118 1    
   114   58  119 1    
   115   58  120 1    
   116   58  121 1    
   117   59   60 am   BACKBONE|DICT|INTERRES
   118   59  122 1    
   119   60   61 2    
   120   60   62 1    
   121   62   63 1    
   122   62   64 1    
   123   62  123 1    
   124   63  124 1    
   125   63  125 1    
   126   63  126 1    
   127   64   65 am   BACKBONE|DICT|INTERRES
   128   64  127 1    
   129   65   66 2    
@<TRIPOS>SUBSTRUCTURE
     1 UNK         1 GROUP             0       ****    0 ROOT    
