@<TRIPOS>MOLECULE
3R135
127   129    1
SMALL
USER_CHARGES


@<TRIPOS>ATOM
      1 CA        -81.7751   22.3241  -71.1398 C.3       0 UNK        -0.1998 
      2 C         -82.2214   23.6359  -71.7663 C.2       0 UNK         0.4909 
      3 O         -83.0941   23.6326  -72.6357 O.2       0 UNK        -0.5240 
      4 N         -81.6244   24.7562  -71.3356 N.am      1 UNK        -0.4739 
      5 CA        -81.8340   26.1056  -71.8750 C.3       1 UNK         0.0864 
      6 C6        -81.0564   27.2130  -71.0933 C.3       11 UNK        -0.0881 
      7 S7        -79.5901   26.6895  -70.1205 S.3       11 UNK        -0.2682 
      8 C8        -78.2564   26.5155  -71.3502 C.3       11 UNK         0.0289 
      9 C9        -77.7700   27.8419  -71.9141 C.ar      11 UNK        -0.0687 
     10 C10       -78.3222   28.3499  -73.0916 C.ar      11 UNK        -0.0823 
     11 C11       -77.8333   29.5260  -73.6630 C.ar      11 UNK        -0.0830 
     12 C12       -76.7753   30.1997  -73.0451 C.ar      11 UNK        -0.1021 
     13 C13       -76.2180   29.7076  -71.8600 C.ar      11 UNK        -0.0753 
     14 C14       -76.7245   28.5324  -71.2953 C.ar      11 UNK        -0.0933 
     15 C15       -75.0605   30.4342  -71.1939 C.3       11 UNK         0.0166 
     16 S16       -73.5011   29.5403  -71.4607 S.3       11 UNK        -0.2615 
     17 C17       -72.2940   30.6821  -70.7077 C.3       11 UNK        -0.0865 
     18 CA        -71.4331   31.4302  -71.7602 C.3       10 UNK         0.0862 
     19 C         -70.4724   32.4322  -71.0533 C.2       10 UNK         0.5551 
     20 N         -69.1619   32.2212  -71.0666 N.am      10 UNK        -0.7319 
     21 O         -70.9300   33.4185  -70.4813 O.2       10 UNK        -0.5018 
     22 N         -70.7924   30.4926  -72.7002 N.am      10 UNK        -0.4509 
     23 C         -70.1861   30.8292  -73.8459 C.2       10 UNK         0.4899 
     24 O         -70.0717   31.9845  -74.2555 O.2       10 UNK        -0.4839 
     25 CA        -69.6125   29.6723  -74.6805 C.3       9 UNK         0.0222 
     26 CB        -68.2286   29.2590  -74.1526 C.3       9 UNK        -0.1966 
     27 N         -70.4961   28.5020  -74.7183 N.am      9 UNK        -0.4218 
     28 C         -71.6324   28.4396  -75.4256 C.2       9 UNK         0.5020 
     29 O         -72.0651   29.3650  -76.1171 O.2       9 UNK        -0.5274 
     30 CA        -72.4096   27.1139  -75.3715 C.3       8 UNK         0.0270 
     31 CB        -73.7644   27.2918  -74.6665 C.3       8 UNK        -0.1976 
     32 N         -72.6233   26.6040  -76.7274 N.am      8 UNK        -0.4313 
     33 C         -71.6673   26.0204  -77.4661 C.2       8 UNK         0.5041 
     34 O         -70.5380   25.7811  -77.0323 O.2       8 UNK        -0.5577 
     35 CA        -71.9998   25.6658  -78.9323 C.3       7 UNK         0.0284 
     36 CB        -71.1894   24.4579  -79.4519 C.3       7 UNK        -0.1958 
     37 N         -73.4325   25.4945  -79.2029 N.am      7 UNK        -0.4454 
     38 C         -74.2531   24.5594  -78.7042 C.2       7 UNK         0.5089 
     39 O         -73.9063   23.6513  -77.9471 O.2       7 UNK        -0.5125 
     40 CA        -75.7348   24.6982  -79.1001 C.3       6 UNK         0.0408 
     41 CB        -76.3037   23.3620  -79.6067 C.3       6 UNK        -0.1791 
     42 N         -76.5617   25.1807  -77.9917 N.am      6 UNK        -0.4762 
     43 C         -76.3649   26.3028  -77.2804 C.2       6 UNK         0.5007 
     44 O         -75.4469   27.0934  -77.5046 O.2       6 UNK        -0.5032 
     45 CA        -77.3567   26.5916  -76.1292 C.3       5 UNK         0.0783 
     46 C46       -78.3734   27.6961  -76.5179 C.3       11 UNK        -0.0857 
     47 S47       -77.6716   29.3814  -76.4325 S.3       11 UNK        -0.2512 
     48 C48       -78.4565   30.0701  -74.9403 C.3       11 UNK         0.0225 
     49 N         -78.0501   25.3798  -75.6739 N.am      5 UNK        -0.4615 
     50 C         -77.4900   24.3884  -74.9646 C.2       4 UNK         0.5053 
     51 O         -76.3189   24.4086  -74.5882 O.2       4 UNK        -0.5105 
     52 CA        -78.3617   23.1614  -74.6313 C.3       4 UNK         0.0263 
     53 CB        -78.3704   22.8642  -73.1207 C.3       4 UNK        -0.1981 
     54 N         -79.7463   23.3240  -75.0792 N.am      4 UNK        -0.4224 
     55 C         -80.3220   22.6710  -76.0973 C.2       3 UNK         0.4895 
     56 O         -79.7377   21.8404  -76.7935 O.2       3 UNK        -0.5091 
     57 CA        -81.8012   22.9851  -76.3980 C.3       3 UNK         0.0250 
     58 CB        -82.7069   21.8846  -75.8218 C.3       3 UNK        -0.1996 
     59 N         -82.2477   24.2858  -75.8896 N.am      3 UNK        -0.4254 
     60 C         -81.8773   25.4693  -76.4001 C.2       2 UNK         0.5004 
     61 O         -81.1388   25.5897  -77.3775 O.2       2 UNK        -0.5226 
     62 CA        -82.3605   26.7357  -75.6645 C.3       2 UNK         0.0269 
     63 CB        -83.7019   27.2103  -76.2453 C.3       2 UNK        -0.1926 
     64 N         -82.4834   26.6018  -74.2047 N.am      2 UNK        -0.4687 
     65 C         -81.5240   26.1497  -73.3839 C.2       1 UNK         0.5165 
     66 O         -80.4325   25.7482  -73.7823 O.2       1 UNK        -0.5079 
     67 H67       -81.4098   21.6473  -71.9117 H         1 UNK         0.0900 
     68 H68       -82.6133   21.8454  -70.6344 H         1 UNK         0.0900 
     69 H69       -80.9769   22.4708  -70.4124 H         1 UNK         0.0900 
     70 H70       -80.9052   24.6998  -70.6277 H         1 UNK         0.2959 
     71 H71       -82.9004   26.3138  -71.7633 H         1 UNK         0.1079 
     72 H72       -80.7836   28.0556  -71.7310 H         1 UNK         0.0837 
     73 H73       -81.7421   27.6465  -70.3637 H         1 UNK         0.0837 
     74 H74       -78.5735   25.8593  -72.1561 H         1 UNK         0.0685 
     75 H75       -77.4208   26.0010  -70.8734 H         1 UNK         0.0685 
     76 H76       -79.1263   27.8208  -73.5755 H         1 UNK         0.1434 
     77 H77       -76.3844   31.1054  -73.4886 H         1 UNK         0.1329 
     78 H78       -76.2848   28.1420  -70.3875 H         1 UNK         0.1335 
     79 H79       -75.2508   30.5259  -70.1235 H         1 UNK         0.0680 
     80 H80       -74.9672   31.4488  -71.5848 H         1 UNK         0.0680 
     81 H81       -72.8218   31.3923  -70.0678 H         1 UNK         0.1032 
     82 H82       -71.6538   30.1010  -70.0412 H         1 UNK         0.1032 
     83 H83       -72.1124   32.0433  -72.3559 H         1 UNK         0.0461 
     84 H84       -68.7806   31.4161  -71.5361 H         1 UNK         0.3453 
     85 H85       -68.5498   32.8773  -70.6076 H         1 UNK         0.3453 
     86 H86       -70.8550   29.5161  -72.4548 H         1 UNK         0.2984 
     87 H87       -69.4843   30.0339  -75.7032 H         1 UNK         0.0554 
     88 H88       -67.5484   30.1119  -74.1332 H         1 UNK         0.0847 
     89 H89       -67.7725   28.5001  -74.7887 H         1 UNK         0.0847 
     90 H90       -68.2799   28.8603  -73.1387 H         1 UNK         0.0847 
     91 H91       -70.2011   27.6875  -74.1984 H         1 UNK         0.3141 
     92 H92       -71.8336   26.3754  -74.8095 H         1 UNK         0.0743 
     93 H93       -73.6254   27.5842  -73.6264 H         1 UNK         0.0784 
     94 H94       -74.3737   28.0622  -75.1417 H         1 UNK         0.0784 
     95 H95       -74.3351   26.3632  -74.6645 H         1 UNK         0.0784 
     96 H96       -73.5278   26.8005  -77.1481 H         1 UNK         0.3213 
     97 H97       -71.6915   26.5349  -79.5155 H         1 UNK         0.0855 
     98 H98       -71.3788   23.5595  -78.8639 H         1 UNK         0.0814 
     99 H99       -70.1177   24.6550  -79.4036 H         1 UNK         0.0814 
    100 H100      -71.4281   24.2360  -80.4919 H         1 UNK         0.0814 
    101 H101      -73.8486   26.2155  -79.7774 H         1 UNK         0.3105 
    102 H102      -75.8168   25.4250  -79.9109 H         1 UNK         0.0547 
    103 H103      -76.3089   22.6014  -78.8247 H         1 UNK         0.0837 
    104 H104      -77.3250   23.4758  -79.9706 H         1 UNK         0.0837 
    105 H105      -75.7078   22.9736  -80.4338 H         1 UNK         0.0837 
    106 H106      -77.3300   24.5869  -77.7164 H         1 UNK         0.3020 
    107 H107      -76.7650   26.9537  -75.2850 H         1 UNK         0.1245 
    108 H108      -79.2406   27.6554  -75.8601 H         1 UNK         0.0781 
    109 H109      -78.7706   27.5292  -77.5212 H         1 UNK         0.0781 
    110 H110      -78.3532   31.1560  -74.9645 H         1 UNK         0.0836 
    111 H111      -79.5295   29.8726  -74.9583 H         1 UNK         0.0836 
    112 H112      -79.0248   25.2975  -75.9261 H         1 UNK         0.3022 
    113 H113      -77.8978   22.3113  -75.1355 H         1 UNK         0.0747 
    114 H114      -77.3578   22.7885  -72.7224 H         1 UNK         0.0793 
    115 H115      -78.8687   21.9174  -72.9125 H         1 UNK         0.0793 
    116 H116      -78.8895   23.6392  -72.5583 H         1 UNK         0.0793 
    117 H117      -80.2743   24.0431  -74.5906 H         1 UNK         0.3047 
    118 H118      -81.9174   22.9883  -77.4841 H         1 UNK         0.0822 
    119 H119      -82.4282   20.9046  -76.2118 H         1 UNK         0.0807 
    120 H120      -83.7516   22.0512  -76.0848 H         1 UNK         0.0807 
    121 H121      -82.6382   21.8339  -74.7343 H         1 UNK         0.0807 
    122 H122      -82.8240   24.2774  -75.0575 H         1 UNK         0.2946 
    123 H123      -81.6190   27.5141  -75.8533 H         1 UNK         0.1144 
    124 H124      -83.6359   27.3397  -77.3267 H         1 UNK         0.0793 
    125 H125      -83.9999   28.1712  -75.8253 H         1 UNK         0.0793 
    126 H126      -84.5018   26.4948  -76.0508 H         1 UNK         0.0793 
    127 H127      -83.3658   26.8892  -73.8055 H         1 UNK         0.2896 
@<TRIPOS>BOND
     1    1    2 1    
     2    1   67 1    
     3    1   68 1    
     4    1   69 1    
     5    2    3 2    
     6    2    4 am   BACKBONE|DICT|INTERRES
     7    4    5 1    
     8    4   70 1    
     9    5    6 1    
    10    5   65 1    
    11    5   71 1    
    12    6    7 1    
    13    6   72 1    
    14    6   73 1    
    15    7    8 1    
    16    8    9 1    
    17    8   74 1    
    18    8   75 1    
    19    9   10 ar   
    20    9   14 ar   
    21   10   11 ar   
    22   10   76 1    
    23   11   12 ar   
    24   11   48 1    
    25   12   13 ar   
    26   12   77 1    
    27   13   14 ar   
    28   13   15 1    
    29   14   78 1    
    30   15   16 1    
    31   15   79 1    
    32   15   80 1    
    33   16   17 1    
    34   17   18 1    
    35   17   81 1    
    36   17   82 1    
    37   18   19 1    
    38   18   22 1    
    39   18   83 1    
    40   19   20 am   BACKBONE|DICT|INTERRES
    41   19   21 2    
    42   20   84 1    
    43   20   85 1    
    44   22   23 am   BACKBONE|DICT|INTERRES
    45   22   86 1    
    46   23   24 2    
    47   23   25 1    
    48   25   26 1    
    49   25   27 1    
    50   25   87 1    
    51   26   88 1    
    52   26   89 1    
    53   26   90 1    
    54   27   28 am   BACKBONE|DICT|INTERRES
    55   27   91 1    
    56   28   29 2    
    57   28   30 1    
    58   30   31 1    
    59   30   32 1    
    60   30   92 1    
    61   31   93 1    
    62   31   94 1    
    63   31   95 1    
    64   32   33 am   BACKBONE|DICT|INTERRES
    65   32   96 1    
    66   33   34 2    
    67   33   35 1    
    68   35   36 1    
    69   35   37 1    
    70   35   97 1    
    71   36   98 1    
    72   36   99 1    
    73   36  100 1    
    74   37   38 am   BACKBONE|DICT|INTERRES
    75   37  101 1    
    76   38   39 2    
    77   38   40 1    
    78   40   41 1    
    79   40   42 1    
    80   40  102 1    
    81   41  103 1    
    82   41  104 1    
    83   41  105 1    
    84   42   43 am   BACKBONE|DICT|INTERRES
    85   42  106 1    
    86   43   44 2    
    87   43   45 1    
    88   45   46 1    
    89   45   49 1    
    90   45  107 1    
    91   46   47 1    
    92   46  108 1    
    93   46  109 1    
    94   47   48 1    
    95   48  110 1    
    96   48  111 1    
    97   49   50 am   BACKBONE|DICT|INTERRES
    98   49  112 1    
    99   50   51 2    
   100   50   52 1    
   101   52   53 1    
   102   52   54 1    
   103   52  113 1    
   104   53  114 1    
   105   53  115 1    
   106   53  116 1    
   107   54   55 am   BACKBONE|DICT|INTERRES
   108   54  117 1    
   109   55   56 2    
   110   55   57 1    
   111   57   58 1    
   112   57   59 1    
   113   57  118 1    
   114   58  119 1    
   115   58  120 1    
   116   58  121 1    
   117   59   60 am   BACKBONE|DICT|INTERRES
   118   59  122 1    
   119   60   61 2    
   120   60   62 1    
   121   62   63 1    
   122   62   64 1    
   123   62  123 1    
   124   63  124 1    
   125   63  125 1    
   126   63  126 1    
   127   64   65 am   BACKBONE|DICT|INTERRES
   128   64  127 1    
   129   65   66 2    
@<TRIPOS>SUBSTRUCTURE
     1 UNK         1 GROUP             0       ****    0 ROOT    
