@<TRIPOS>MOLECULE
3R135
127   129    1
SMALL
USER_CHARGES


@<TRIPOS>ATOM
      1 CA        -82.1311   30.9876  -75.3271 C.3       0 UNK        -0.1998 
      2 C         -81.4858   29.7334  -74.7574 C.2       0 UNK         0.4909 
      3 O         -80.6619   29.1111  -75.4280 O.2       0 UNK        -0.5240 
      4 N         -81.8471   29.3646  -73.5223 N.am      1 UNK        -0.4739 
      5 CA        -81.3445   28.1763  -72.8256 C.3       1 UNK         0.0864 
      6 C6        -81.6135   28.2232  -71.2983 C.3       11 UNK        -0.0881 
      7 S7        -81.0752   29.7855  -70.5169 S.3       11 UNK        -0.2682 
      8 C8        -79.4636   29.3338  -69.7896 C.3       11 UNK         0.0289 
      9 C9        -78.3995   28.9650  -70.8200 C.ar      11 UNK        -0.0687 
     10 C10       -77.5551   27.8766  -70.5802 C.ar      11 UNK        -0.0823 
     11 C11       -76.5640   27.5255  -71.5017 C.ar      11 UNK        -0.0830 
     12 C12       -76.4254   28.2662  -72.6789 C.ar      11 UNK        -0.1021 
     13 C13       -77.2496   29.3677  -72.9238 C.ar      11 UNK        -0.0753 
     14 C14       -78.2259   29.7184  -71.9873 C.ar      11 UNK        -0.0933 
     15 C15       -77.0848   30.1846  -74.1963 C.3       11 UNK         0.0166 
     16 S16       -76.0311   31.6449  -73.9252 S.3       11 UNK        -0.2615 
     17 C17       -74.4041   30.8667  -73.6393 C.3       11 UNK        -0.0865 
     18 CA        -73.2136   31.8523  -73.8464 C.3       10 UNK         0.0862 
     19 C         -72.8408   32.6622  -72.5647 C.2       10 UNK         0.5551 
     20 N         -71.5767   33.0103  -72.3547 N.am      10 UNK        -0.7319 
     21 O         -73.7040   33.0069  -71.7616 O.2       10 UNK        -0.5018 
     22 N         -72.0751   31.2102  -74.5278 N.am      10 UNK        -0.4509 
     23 C         -71.3711   30.1688  -74.0664 C.2       10 UNK         0.4899 
     24 O         -71.5498   29.6374  -72.9685 O.2       10 UNK        -0.4839 
     25 CA        -70.2673   29.6346  -74.9973 C.3       9 UNK         0.0222 
     26 CB        -68.8819   30.0857  -74.5064 C.3       9 UNK        -0.1966 
     27 N         -70.2941   28.1725  -75.1067 N.am      9 UNK        -0.4218 
     28 C         -71.3286   27.4600  -75.5744 C.2       9 UNK         0.5020 
     29 O         -72.3693   27.9680  -75.9999 O.2       9 UNK        -0.5274 
     30 CA        -71.1672   25.9298  -75.5489 C.3       8 UNK         0.0270 
     31 CB        -71.1934   25.4011  -74.1033 C.3       8 UNK        -0.1976 
     32 N         -72.2528   25.2993  -76.3001 N.am      8 UNK        -0.4313 
     33 C         -72.2090   24.9885  -77.6040 C.2       8 UNK         0.5041 
     34 O         -71.1861   25.0568  -78.2878 O.2       8 UNK        -0.5577 
     35 CA        -73.5227   24.5298  -78.2716 C.3       7 UNK         0.0284 
     36 CB        -73.5988   22.9955  -78.3200 C.3       7 UNK        -0.1958 
     37 N         -74.7115   25.0446  -77.5920 N.am      7 UNK        -0.4454 
     38 C         -75.0870   26.3305  -77.5686 C.2       7 UNK         0.5089 
     39 O         -74.6030   27.1914  -78.3040 O.2       7 UNK        -0.5125 
     40 CA        -76.1653   26.7369  -76.5430 C.3       6 UNK         0.0408 
     41 CB        -77.4360   27.2383  -77.2473 C.3       6 UNK        -0.1791 
     42 N         -76.5398   25.6861  -75.5904 N.am      6 UNK        -0.4762 
     43 C         -75.7524   25.1381  -74.6533 C.2       6 UNK         0.5007 
     44 O         -74.5690   25.4342  -74.5003 O.2       6 UNK        -0.5032 
     45 CA        -76.3857   24.0292  -73.7942 C.3       5 UNK         0.0783 
     46 C46       -77.3108   24.6125  -72.6932 C.3       11 UNK        -0.0857 
     47 S47       -76.4810   24.7634  -71.0780 S.3       11 UNK        -0.2512 
     48 C48       -75.6218   26.3648  -71.2136 C.3       11 UNK         0.0225 
     49 N         -77.1008   23.0860  -74.6546 N.am      5 UNK        -0.4615 
     50 C         -76.5286   22.0832  -75.3326 C.2       4 UNK         0.5053 
     51 O         -75.3317   21.8074  -75.2615 O.2       4 UNK        -0.5105 
     52 CA        -77.4405   21.2459  -76.2479 C.3       4 UNK         0.0263 
     53 CB        -77.9258   19.9867  -75.5121 C.3       4 UNK        -0.1981 
     54 N         -78.6004   21.9924  -76.7434 N.am      4 UNK        -0.4224 
     55 C         -78.5356   22.9725  -77.6555 C.2       3 UNK         0.4895 
     56 O         -77.4976   23.3157  -78.2210 O.2       3 UNK        -0.5091 
     57 CA        -79.8456   23.7219  -77.9604 C.3       3 UNK         0.0250 
     58 CB        -80.6272   23.0055  -79.0733 C.3       3 UNK        -0.1996 
     59 N         -80.7220   23.9240  -76.7968 N.am      3 UNK        -0.4254 
     60 C         -80.3692   24.5663  -75.6749 C.2       2 UNK         0.5004 
     61 O         -79.2268   24.9703  -75.4468 O.2       2 UNK        -0.5226 
     62 CA        -81.4474   24.7639  -74.6068 C.3       2 UNK         0.0269 
     63 CB        -81.5072   23.5542  -73.6592 C.3       2 UNK        -0.1926 
     64 N         -81.0950   25.9612  -73.8482 N.am      2 UNK        -0.4687 
     65 C         -81.9519   26.9064  -73.4539 C.2       1 UNK         0.5165 
     66 O         -83.1767   26.8128  -73.5711 O.2       1 UNK        -0.5079 
     67 H67       -82.8286   31.4426  -74.6240 H         1 UNK         0.0900 
     68 H68       -82.6765   30.7472  -76.2393 H         1 UNK         0.0900 
     69 H69       -81.3661   31.7244  -75.5708 H         1 UNK         0.0900 
     70 H70       -82.5334   29.9054  -73.0162 H         1 UNK         0.2959 
     71 H71       -80.2635   28.1425  -72.9739 H         1 UNK         0.1079 
     72 H72       -82.6807   28.1119  -71.0957 H         1 UNK         0.0837 
     73 H73       -81.1240   27.3839  -70.8005 H         1 UNK         0.0837 
     74 H74       -79.0979   30.1793  -69.2058 H         1 UNK         0.0685 
     75 H75       -79.6190   28.5165  -69.0836 H         1 UNK         0.0685 
     76 H76       -77.6622   27.3002  -69.6712 H         1 UNK         0.1434 
     77 H77       -75.6623   27.9981  -73.3972 H         1 UNK         0.1329 
     78 H78       -78.8577   30.5759  -72.1742 H         1 UNK         0.1335 
     79 H79       -76.6681   29.5732  -74.9975 H         1 UNK         0.0680 
     80 H80       -78.0639   30.5147  -74.5476 H         1 UNK         0.0680 
     81 H81       -74.3220   30.0310  -74.3366 H         1 UNK         0.1032 
     82 H82       -74.3798   30.4196  -72.6435 H         1 UNK         0.1032 
     83 H83       -73.5359   32.6132  -74.5581 H         1 UNK         0.0461 
     84 H84       -70.8590   32.7425  -73.0084 H         1 UNK         0.3453 
     85 H85       -71.3401   33.5412  -71.5313 H         1 UNK         0.3453 
     86 H86       -71.8396   31.5925  -75.4327 H         1 UNK         0.2984 
     87 H87       -70.4237   30.0389  -75.9996 H         1 UNK         0.0554 
     88 H88       -68.0926   29.7589  -75.1837 H         1 UNK         0.0847 
     89 H89       -68.6577   29.6931  -73.5135 H         1 UNK         0.0847 
     90 H90       -68.8235   31.1733  -74.4462 H         1 UNK         0.0847 
     91 H91       -69.4896   27.6788  -74.7486 H         1 UNK         0.3141 
     92 H92       -70.2062   25.6729  -75.9996 H         1 UNK         0.0743 
     93 H93       -72.0927   25.7171  -73.5730 H         1 UNK         0.0784 
     94 H94       -71.1563   24.3119  -74.0783 H         1 UNK         0.0784 
     95 H95       -70.3380   25.7653  -73.5335 H         1 UNK         0.0784 
     96 H96       -73.1517   25.2892  -75.8250 H         1 UNK         0.3213 
     97 H97       -73.5254   24.9088  -79.2959 H         1 UNK         0.0855 
     98 H98       -73.5851   22.5591  -77.3204 H         1 UNK         0.0814 
     99 H99       -72.7519   22.5809  -78.8684 H         1 UNK         0.0814 
    100 H100      -74.5069   22.6581  -78.8206 H         1 UNK         0.0814 
    101 H101      -75.2150   24.4011  -76.9987 H         1 UNK         0.3105 
    102 H102      -75.7465   27.5628  -75.9656 H         1 UNK         0.0547 
    103 H103      -77.2121   28.0670  -77.9200 H         1 UNK         0.0837 
    104 H104      -77.8994   26.4503  -77.8412 H         1 UNK         0.0837 
    105 H105      -78.1751   27.5958  -76.5292 H         1 UNK         0.0837 
    106 H106      -77.5129   25.3821  -75.6273 H         1 UNK         0.3020 
    107 H107      -75.5677   23.4847  -73.3156 H         1 UNK         0.1245 
    108 H108      -78.1538   23.9413  -72.5223 H         1 UNK         0.0781 
    109 H109      -77.7670   25.5612  -72.9825 H         1 UNK         0.0781 
    110 H110      -74.8441   26.2927  -71.9747 H         1 UNK         0.0836 
    111 H111      -75.1018   26.5606  -70.2749 H         1 UNK         0.0836 
    112 H112      -78.0727   23.3015  -74.8331 H         1 UNK         0.3022 
    113 H113      -76.8435   20.9317  -77.1071 H         1 UNK         0.0747 
    114 H114      -78.5130   19.3445  -76.1689 H         1 UNK         0.0793 
    115 H115      -77.0819   19.3951  -75.1539 H         1 UNK         0.0793 
    116 H116      -78.5404   20.2351  -74.6458 H         1 UNK         0.0793 
    117 H117      -79.4984   21.7707  -76.3387 H         1 UNK         0.3047 
    118 H118      -79.5684   24.7118  -78.3281 H         1 UNK         0.0822 
    119 H119      -81.4963   23.5851  -79.3852 H         1 UNK         0.0807 
    120 H120      -80.9749   22.0217  -78.7557 H         1 UNK         0.0807 
    121 H121      -80.0040   22.8611  -79.9573 H         1 UNK         0.0807 
    122 H122      -81.6752   23.6036  -76.8938 H         1 UNK         0.2946 
    123 H123      -82.4116   24.8967  -75.1034 H         1 UNK         0.1144 
    124 H124      -82.2626   23.6970  -72.8863 H         1 UNK         0.0793 
    125 H125      -80.5518   23.3808  -73.1626 H         1 UNK         0.0793 
    126 H126      -81.7666   22.6431  -74.1997 H         1 UNK         0.0793 
    127 H127      -80.0993   26.1382  -73.8039 H         1 UNK         0.2896 
@<TRIPOS>BOND
     1    1    2 1    
     2    1   67 1    
     3    1   68 1    
     4    1   69 1    
     5    2    3 2    
     6    2    4 am   BACKBONE|DICT|INTERRES
     7    4    5 1    
     8    4   70 1    
     9    5    6 1    
    10    5   65 1    
    11    5   71 1    
    12    6    7 1    
    13    6   72 1    
    14    6   73 1    
    15    7    8 1    
    16    8    9 1    
    17    8   74 1    
    18    8   75 1    
    19    9   10 ar   
    20    9   14 ar   
    21   10   11 ar   
    22   10   76 1    
    23   11   12 ar   
    24   11   48 1    
    25   12   13 ar   
    26   12   77 1    
    27   13   14 ar   
    28   13   15 1    
    29   14   78 1    
    30   15   16 1    
    31   15   79 1    
    32   15   80 1    
    33   16   17 1    
    34   17   18 1    
    35   17   81 1    
    36   17   82 1    
    37   18   19 1    
    38   18   22 1    
    39   18   83 1    
    40   19   20 am   BACKBONE|DICT|INTERRES
    41   19   21 2    
    42   20   84 1    
    43   20   85 1    
    44   22   23 am   BACKBONE|DICT|INTERRES
    45   22   86 1    
    46   23   24 2    
    47   23   25 1    
    48   25   26 1    
    49   25   27 1    
    50   25   87 1    
    51   26   88 1    
    52   26   89 1    
    53   26   90 1    
    54   27   28 am   BACKBONE|DICT|INTERRES
    55   27   91 1    
    56   28   29 2    
    57   28   30 1    
    58   30   31 1    
    59   30   32 1    
    60   30   92 1    
    61   31   93 1    
    62   31   94 1    
    63   31   95 1    
    64   32   33 am   BACKBONE|DICT|INTERRES
    65   32   96 1    
    66   33   34 2    
    67   33   35 1    
    68   35   36 1    
    69   35   37 1    
    70   35   97 1    
    71   36   98 1    
    72   36   99 1    
    73   36  100 1    
    74   37   38 am   BACKBONE|DICT|INTERRES
    75   37  101 1    
    76   38   39 2    
    77   38   40 1    
    78   40   41 1    
    79   40   42 1    
    80   40  102 1    
    81   41  103 1    
    82   41  104 1    
    83   41  105 1    
    84   42   43 am   BACKBONE|DICT|INTERRES
    85   42  106 1    
    86   43   44 2    
    87   43   45 1    
    88   45   46 1    
    89   45   49 1    
    90   45  107 1    
    91   46   47 1    
    92   46  108 1    
    93   46  109 1    
    94   47   48 1    
    95   48  110 1    
    96   48  111 1    
    97   49   50 am   BACKBONE|DICT|INTERRES
    98   49  112 1    
    99   50   51 2    
   100   50   52 1    
   101   52   53 1    
   102   52   54 1    
   103   52  113 1    
   104   53  114 1    
   105   53  115 1    
   106   53  116 1    
   107   54   55 am   BACKBONE|DICT|INTERRES
   108   54  117 1    
   109   55   56 2    
   110   55   57 1    
   111   57   58 1    
   112   57   59 1    
   113   57  118 1    
   114   58  119 1    
   115   58  120 1    
   116   58  121 1    
   117   59   60 am   BACKBONE|DICT|INTERRES
   118   59  122 1    
   119   60   61 2    
   120   60   62 1    
   121   62   63 1    
   122   62   64 1    
   123   62  123 1    
   124   63  124 1    
   125   63  125 1    
   126   63  126 1    
   127   64   65 am   BACKBONE|DICT|INTERRES
   128   64  127 1    
   129   65   66 2    
@<TRIPOS>SUBSTRUCTURE
     1 UNK         1 GROUP             0       ****    0 ROOT    
