@<TRIPOS>MOLECULE
3R135
127   129    1
SMALL
USER_CHARGES


@<TRIPOS>ATOM
      1 CA        -79.9361   22.0752  -71.7745 C.3       0 UNK        -0.1998 
      2 C         -80.6963   23.3105  -72.2311 C.2       0 UNK         0.4909 
      3 O         -81.4750   23.2336  -73.1820 O.2       0 UNK        -0.5240 
      4 N         -80.4681   24.4550  -71.5725 N.am      1 UNK        -0.4739 
      5 CA        -81.0635   25.7527  -71.9091 C.3       1 UNK         0.0864 
      6 C6        -80.7217   26.8153  -70.8387 C.3       11 UNK        -0.0881 
      7 S7        -81.7505   28.3143  -70.9958 S.3       11 UNK        -0.2682 
      8 C8        -80.6507   29.5926  -70.3069 C.3       11 UNK         0.0289 
      9 C9        -79.4025   29.8130  -71.1520 C.ar      11 UNK        -0.0687 
     10 C10       -79.5044   30.3799  -72.4265 C.ar      11 UNK        -0.0823 
     11 C11       -78.3614   30.6054  -73.2011 C.ar      11 UNK        -0.0830 
     12 C12       -77.1069   30.2785  -72.6759 C.ar      11 UNK        -0.1021 
     13 C13       -76.9931   29.6941  -71.4121 C.ar      11 UNK        -0.0753 
     14 C14       -78.1433   29.4650  -70.6526 C.ar      11 UNK        -0.0933 
     15 C15       -75.6226   29.3135  -70.8786 C.3       11 UNK         0.0166 
     16 S16       -74.9708   27.8606  -71.7551 S.3       11 UNK        -0.2615 
     17 C17       -73.2885   27.7412  -71.0542 C.3       11 UNK        -0.0865 
     18 CA        -72.3254   28.8915  -71.4653 C.3       10 UNK         0.0862 
     19 C         -70.8966   28.6299  -70.9041 C.2       10 UNK         0.5551 
     20 N         -69.8768   28.4470  -71.7336 N.am      10 UNK        -0.7319 
     21 O         -70.7134   28.5933  -69.6900 O.2       10 UNK        -0.5018 
     22 N         -72.3948   29.1795  -72.9067 N.am      10 UNK        -0.4509 
     23 C         -71.9326   30.2741  -73.5199 C.2       10 UNK         0.4899 
     24 O         -71.3575   31.1916  -72.9325 O.2       10 UNK        -0.4839 
     25 CA        -72.1488   30.3469  -75.0483 C.3       9 UNK         0.0222 
     26 CB        -71.5107   31.5996  -75.6773 C.3       9 UNK        -0.1966 
     27 N         -71.6552   29.1566  -75.7529 N.am      9 UNK        -0.4218 
     28 C         -72.2629   27.9638  -75.7693 C.2       9 UNK         0.5020 
     29 O         -73.3076   27.7292  -75.1627 O.2       9 UNK        -0.5274 
     30 CA        -71.5522   26.8350  -76.5194 C.3       8 UNK         0.0270 
     31 CB        -70.4771   26.1901  -75.6227 C.3       8 UNK        -0.1976 
     32 N         -72.5345   25.8323  -76.9290 N.am      8 UNK        -0.4313 
     33 C         -72.3470   24.9267  -77.8974 C.2       8 UNK         0.5041 
     34 O         -71.3062   24.8297  -78.5500 O.2       8 UNK        -0.5577 
     35 CA        -73.5106   23.9736  -78.2086 C.3       7 UNK         0.0284 
     36 CB        -73.6033   22.8480  -77.1644 C.3       7 UNK        -0.1958 
     37 N         -74.7844   24.6877  -78.2923 N.am      7 UNK        -0.4454 
     38 C         -75.2218   25.3183  -79.3914 C.2       7 UNK         0.5089 
     39 O         -74.6117   25.3264  -80.4615 O.2       7 UNK        -0.5125 
     40 CA        -76.5719   26.0550  -79.3045 C.3       6 UNK         0.0408 
     41 CB        -77.7010   25.1570  -79.8341 C.3       6 UNK        -0.1791 
     42 N         -76.9150   26.5092  -77.9564 N.am      6 UNK        -0.4762 
     43 C         -76.2631   27.4642  -77.2765 C.2       6 UNK         0.5007 
     44 O         -75.3263   28.1129  -77.7437 O.2       6 UNK        -0.5032 
     45 CA        -76.7255   27.7063  -75.8222 C.3       5 UNK         0.0783 
     46 C46       -77.9380   28.6739  -75.7822 C.3       11 UNK        -0.0857 
     47 S47       -77.4249   30.4236  -75.8562 S.3       11 UNK        -0.2512 
     48 C48       -78.4996   31.2032  -74.5993 C.3       11 UNK         0.0225 
     49 N         -77.0109   26.4596  -75.0985 N.am      5 UNK        -0.4615 
     50 C         -76.1767   25.4183  -74.9525 C.2       4 UNK         0.5053 
     51 O         -75.0428   25.3640  -75.4228 O.2       4 UNK        -0.5105 
     52 CA        -76.7387   24.1828  -74.2369 C.3       4 UNK         0.0263 
     53 CB        -76.7925   24.3876  -72.7136 C.3       4 UNK        -0.1981 
     54 N         -78.0626   23.8480  -74.7626 N.am      4 UNK        -0.4224 
     55 C         -78.2666   23.2766  -75.9600 C.2       3 UNK         0.4895 
     56 O         -77.3613   22.8601  -76.6829 O.2       3 UNK        -0.5091 
     57 CA        -79.7195   23.1790  -76.4556 C.3       3 UNK         0.0250 
     58 CB        -80.3320   21.8198  -76.0828 C.3       3 UNK        -0.1996 
     59 N         -80.5640   24.2657  -75.9505 N.am      3 UNK        -0.4254 
     60 C         -80.4669   25.5378  -76.3689 C.2       2 UNK         0.5004 
     61 O         -79.6861   25.9066  -77.2451 O.2       2 UNK        -0.5226 
     62 CA        -81.3469   26.5879  -75.6654 C.3       2 UNK         0.0269 
     63 CB        -82.6898   26.7412  -76.3959 C.3       2 UNK        -0.1926 
     64 N         -81.5904   26.2995  -74.2488 N.am      2 UNK        -0.4687 
     65 C         -80.6277   26.1877  -73.3234 C.2       1 UNK         0.5165 
     66 O         -79.4307   26.3483  -73.5669 O.2       1 UNK        -0.5079 
     67 H67       -79.3252   22.2742  -70.8942 H         1 UNK         0.0900 
     68 H68       -79.2805   21.7231  -72.5705 H         1 UNK         0.0900 
     69 H69       -80.6343   21.2755  -71.5288 H         1 UNK         0.0900 
     70 H70       -79.8041   24.4632  -70.8117 H         1 UNK         0.2959 
     71 H71       -82.1466   25.6098  -71.9074 H         1 UNK         0.1079 
     72 H72       -80.8948   26.4101  -69.8404 H         1 UNK         0.0837 
     73 H73       -79.6615   27.0702  -70.8802 H         1 UNK         0.0837 
     74 H74       -81.2031   30.5308  -70.2391 H         1 UNK         0.0685 
     75 H75       -80.3864   29.3202  -69.2838 H         1 UNK         0.0685 
     76 H76       -80.4804   30.6387  -72.8142 H         1 UNK         0.1434 
     77 H77       -76.2140   30.4521  -73.2608 H         1 UNK         0.1329 
     78 H78       -78.0577   29.0178  -69.6718 H         1 UNK         0.1335 
     79 H79       -75.6625   29.1042  -69.8088 H         1 UNK         0.0680 
     80 H80       -74.9479   30.1597  -71.0089 H         1 UNK         0.0680 
     81 H81       -72.8784   26.7811  -71.3737 H         1 UNK         0.1032 
     82 H82       -73.3706   27.6837  -69.9671 H         1 UNK         0.1032 
     83 H83       -72.6647   29.7964  -70.9595 H         1 UNK         0.0461 
     84 H84       -68.9563   28.2810  -71.3588 H         1 UNK         0.3453 
     85 H85       -70.0201   28.4889  -72.7290 H         1 UNK         0.3453 
     86 H86       -72.8681   28.4867  -73.4823 H         1 UNK         0.2984 
     87 H87       -73.2269   30.4148  -75.2087 H         1 UNK         0.0554 
     88 H88       -71.7265   31.6627  -76.7440 H         1 UNK         0.0847 
     89 H89       -70.4275   31.6087  -75.5516 H         1 UNK         0.0847 
     90 H90       -71.8996   32.5094  -75.2183 H         1 UNK         0.0847 
     91 H91       -70.7742   29.2565  -76.2368 H         1 UNK         0.3141 
     92 H92       -71.0845   27.2567  -77.4115 H         1 UNK         0.0743 
     93 H93       -69.7435   26.9266  -75.2929 H         1 UNK         0.0784 
     94 H94       -70.9170   25.7439  -74.7298 H         1 UNK         0.0784 
     95 H95       -69.9307   25.4090  -76.1513 H         1 UNK         0.0784 
     96 H96       -73.4198   25.8670  -76.4221 H         1 UNK         0.3213 
     97 H97       -73.3078   23.5051  -79.1744 H         1 UNK         0.0855 
     98 H98       -72.6873   22.2561  -77.1525 H         1 UNK         0.0814 
     99 H99       -74.4268   22.1689  -77.3863 H         1 UNK         0.0814 
    100 H100      -73.7516   23.2323  -76.1555 H         1 UNK         0.0814 
    101 H101      -75.3129   24.7770  -77.4320 H         1 UNK         0.3105 
    102 H102      -76.5079   26.9357  -79.9467 H         1 UNK         0.0547 
    103 H103      -77.4889   24.8179  -80.8490 H         1 UNK         0.0837 
    104 H104      -77.8331   24.2697  -79.2136 H         1 UNK         0.0837 
    105 H105      -78.6517   25.6895  -79.8634 H         1 UNK         0.0837 
    106 H106      -77.7358   26.0878  -77.5296 H         1 UNK         0.3020 
    107 H107      -75.8900   28.1661  -75.2897 H         1 UNK         0.1245 
    108 H108      -78.5010   28.5210  -74.8614 H         1 UNK         0.0781 
    109 H109      -78.6457   28.4738  -76.5889 H         1 UNK         0.0781 
    110 H110      -79.5324   31.1328  -74.9444 H         1 UNK         0.0836 
    111 H111      -78.2637   32.2667  -74.5482 H         1 UNK         0.0836 
    112 H112      -77.9142   26.4128  -74.6329 H         1 UNK         0.3022 
    113 H113      -76.0663   23.3449  -74.4352 H         1 UNK         0.0747 
    114 H114      -77.1679   23.4993  -72.2063 H         1 UNK         0.0793 
    115 H115      -75.7956   24.5888  -72.3191 H         1 UNK         0.0793 
    116 H116      -77.4218   25.2305  -72.4292 H         1 UNK         0.0793 
    117 H117      -78.8568   24.2294  -74.2676 H         1 UNK         0.3047 
    118 H118      -79.6980   23.2485  -77.5456 H         1 UNK         0.0822 
    119 H119      -81.3536   21.7290  -76.4523 H         1 UNK         0.0807 
    120 H120      -80.3495   21.6616  -75.0047 H         1 UNK         0.0807 
    121 H121      -79.7561   21.0028  -76.5196 H         1 UNK         0.0807 
    122 H122      -81.1961   24.0412  -75.1897 H         1 UNK         0.2946 
    123 H123      -80.8177   27.5415  -75.7199 H         1 UNK         0.1144 
    124 H124      -83.2848   27.5485  -75.9682 H         1 UNK         0.0793 
    125 H125      -83.2815   25.8260  -76.3513 H         1 UNK         0.0793 
    126 H126      -82.5352   26.9787  -77.4496 H         1 UNK         0.0793 
    127 H127      -82.5489   26.1280  -73.9800 H         1 UNK         0.2896 
@<TRIPOS>BOND
     1    1    2 1    
     2    1   67 1    
     3    1   68 1    
     4    1   69 1    
     5    2    3 2    
     6    2    4 am   BACKBONE|DICT|INTERRES
     7    4    5 1    
     8    4   70 1    
     9    5    6 1    
    10    5   65 1    
    11    5   71 1    
    12    6    7 1    
    13    6   72 1    
    14    6   73 1    
    15    7    8 1    
    16    8    9 1    
    17    8   74 1    
    18    8   75 1    
    19    9   10 ar   
    20    9   14 ar   
    21   10   11 ar   
    22   10   76 1    
    23   11   12 ar   
    24   11   48 1    
    25   12   13 ar   
    26   12   77 1    
    27   13   14 ar   
    28   13   15 1    
    29   14   78 1    
    30   15   16 1    
    31   15   79 1    
    32   15   80 1    
    33   16   17 1    
    34   17   18 1    
    35   17   81 1    
    36   17   82 1    
    37   18   19 1    
    38   18   22 1    
    39   18   83 1    
    40   19   20 am   BACKBONE|DICT|INTERRES
    41   19   21 2    
    42   20   84 1    
    43   20   85 1    
    44   22   23 am   BACKBONE|DICT|INTERRES
    45   22   86 1    
    46   23   24 2    
    47   23   25 1    
    48   25   26 1    
    49   25   27 1    
    50   25   87 1    
    51   26   88 1    
    52   26   89 1    
    53   26   90 1    
    54   27   28 am   BACKBONE|DICT|INTERRES
    55   27   91 1    
    56   28   29 2    
    57   28   30 1    
    58   30   31 1    
    59   30   32 1    
    60   30   92 1    
    61   31   93 1    
    62   31   94 1    
    63   31   95 1    
    64   32   33 am   BACKBONE|DICT|INTERRES
    65   32   96 1    
    66   33   34 2    
    67   33   35 1    
    68   35   36 1    
    69   35   37 1    
    70   35   97 1    
    71   36   98 1    
    72   36   99 1    
    73   36  100 1    
    74   37   38 am   BACKBONE|DICT|INTERRES
    75   37  101 1    
    76   38   39 2    
    77   38   40 1    
    78   40   41 1    
    79   40   42 1    
    80   40  102 1    
    81   41  103 1    
    82   41  104 1    
    83   41  105 1    
    84   42   43 am   BACKBONE|DICT|INTERRES
    85   42  106 1    
    86   43   44 2    
    87   43   45 1    
    88   45   46 1    
    89   45   49 1    
    90   45  107 1    
    91   46   47 1    
    92   46  108 1    
    93   46  109 1    
    94   47   48 1    
    95   48  110 1    
    96   48  111 1    
    97   49   50 am   BACKBONE|DICT|INTERRES
    98   49  112 1    
    99   50   51 2    
   100   50   52 1    
   101   52   53 1    
   102   52   54 1    
   103   52  113 1    
   104   53  114 1    
   105   53  115 1    
   106   53  116 1    
   107   54   55 am   BACKBONE|DICT|INTERRES
   108   54  117 1    
   109   55   56 2    
   110   55   57 1    
   111   57   58 1    
   112   57   59 1    
   113   57  118 1    
   114   58  119 1    
   115   58  120 1    
   116   58  121 1    
   117   59   60 am   BACKBONE|DICT|INTERRES
   118   59  122 1    
   119   60   61 2    
   120   60   62 1    
   121   62   63 1    
   122   62   64 1    
   123   62  123 1    
   124   63  124 1    
   125   63  125 1    
   126   63  126 1    
   127   64   65 am   BACKBONE|DICT|INTERRES
   128   64  127 1    
   129   65   66 2    
@<TRIPOS>SUBSTRUCTURE
     1 UNK         1 GROUP             0       ****    0 ROOT    
