@<TRIPOS>MOLECULE
3R135
127   129    1
SMALL
USER_CHARGES


@<TRIPOS>ATOM
      1 CA        -81.3431   25.4239  -72.4871 C.3       0 UNK        -0.1998 
      2 C         -82.7610   25.8435  -72.8596 C.2       0 UNK         0.4909 
      3 O         -83.6882   25.0691  -72.6314 O.2       0 UNK        -0.5240 
      4 N         -83.0062   27.0363  -73.4255 N.am      1 UNK        -0.4739 
      5 CA        -82.0695   28.1057  -73.8249 C.3       1 UNK         0.0864 
      6 C6        -81.1596   28.6553  -72.6895 C.3       11 UNK        -0.0881 
      7 S7        -82.0331   28.9724  -71.1155 S.3       11 UNK        -0.2682 
      8 C8        -80.9066   30.1393  -70.2744 C.3       11 UNK         0.0289 
      9 C9        -79.4350   29.7379  -70.3421 C.ar      11 UNK        -0.0687 
     10 C10       -79.0292   28.4262  -70.0669 C.ar      11 UNK        -0.0823 
     11 C11       -77.6884   28.0580  -70.2025 C.ar      11 UNK        -0.0830 
     12 C12       -76.7390   29.0274  -70.5294 C.ar      11 UNK        -0.1021 
     13 C13       -77.1268   30.3379  -70.8179 C.ar      11 UNK        -0.0753 
     14 C14       -78.4773   30.6864  -70.7184 C.ar      11 UNK        -0.0933 
     15 C15       -76.0973   31.3677  -71.2685 C.3       11 UNK         0.0166 
     16 S16       -75.3176   30.9043  -72.8543 S.3       11 UNK        -0.2615 
     17 C17       -73.9313   29.8520  -72.2962 C.3       11 UNK        -0.0865 
     18 CA        -72.6155   30.1704  -73.0505 C.3       10 UNK         0.0862 
     19 C         -71.3657   29.6738  -72.2593 C.2       10 UNK         0.5551 
     20 N         -70.4651   28.8810  -72.8268 N.am      10 UNK        -0.7319 
     21 O         -71.2018   30.0297  -71.0948 O.2       10 UNK        -0.5018 
     22 N         -72.6870   29.7034  -74.4438 N.am      10 UNK        -0.4509 
     23 C         -71.9482   30.1857  -75.4500 C.2       10 UNK         0.4899 
     24 O         -71.2010   31.1603  -75.3468 O.2       10 UNK        -0.4839 
     25 CA        -72.0424   29.4173  -76.7832 C.3       9 UNK         0.0222 
     26 CB        -70.9708   29.8480  -77.8063 C.3       9 UNK        -0.1966 
     27 N         -72.0203   27.9602  -76.5965 N.am      9 UNK        -0.4218 
     28 C         -71.0790   27.2314  -75.9739 C.2       9 UNK         0.5020 
     29 O         -70.0529   27.7135  -75.4932 O.2       9 UNK        -0.5274 
     30 CA        -71.3256   25.7201  -75.8038 C.3       8 UNK         0.0270 
     31 CB        -71.5761   25.3935  -74.3215 C.3       8 UNK        -0.1976 
     32 N         -72.4460   25.2118  -76.5979 N.am      8 UNK        -0.4313 
     33 C         -72.4193   25.0211  -77.9239 C.2       8 UNK         0.5041 
     34 O         -71.4113   25.1634  -78.6168 O.2       8 UNK        -0.5577 
     35 CA        -73.7545   24.6583  -78.5973 C.3       7 UNK         0.0284 
     36 CB        -73.9965   23.1426  -78.5384 C.3       7 UNK        -0.1958 
     37 N         -74.9011   25.3718  -78.0211 N.am      7 UNK        -0.4454 
     38 C         -75.0515   26.7050  -78.0378 C.2       7 UNK         0.5089 
     39 O         -74.2485   27.4757  -78.5613 O.2       7 UNK        -0.5125 
     40 CA        -76.2729   27.2886  -77.3143 C.3       6 UNK         0.0408 
     41 CB        -77.5170   27.2393  -78.2110 C.3       6 UNK        -0.1791 
     42 N         -76.5420   26.6174  -76.0433 N.am      6 UNK        -0.4762 
     43 C         -75.7878   26.7493  -74.9416 C.2       6 UNK         0.5007 
     44 O         -74.7975   27.4811  -74.8645 O.2       6 UNK        -0.5032 
     45 CA        -76.1914   25.8729  -73.7387 C.3       5 UNK         0.0783 
     46 C46       -77.3709   26.5169  -72.9721 C.3       11 UNK        -0.0857 
     47 S47       -77.8671   25.5844  -71.4749 S.3       11 UNK        -0.2512 
     48 C48       -77.2642   26.6017  -70.0796 C.3       11 UNK         0.0225 
     49 N         -76.4834   24.4972  -74.1563 N.am      5 UNK        -0.4615 
     50 C         -75.5835   23.6575  -74.6856 C.2       4 UNK         0.5053 
     51 O         -74.4062   23.9531  -74.8835 O.2       4 UNK        -0.5105 
     52 CA        -76.0786   22.2607  -75.0930 C.3       4 UNK         0.0263 
     53 CB        -76.0089   21.3001  -73.8955 C.3       4 UNK        -0.1981 
     54 N         -77.4319   22.2441  -75.6530 N.am      4 UNK        -0.4224 
     55 C         -77.8423   22.9229  -76.7341 C.2       3 UNK         0.4895 
     56 O         -77.1187   23.6813  -77.3827 O.2       3 UNK        -0.5091 
     57 CA        -79.3078   22.7264  -77.1742 C.3       3 UNK         0.0250 
     58 CB        -80.1468   21.8534  -76.2109 C.3       3 UNK        -0.1996 
     59 N         -80.0045   23.9940  -77.4245 N.am      3 UNK        -0.4254 
     60 C         -80.1357   25.0242  -76.5754 C.2       2 UNK         0.5004 
     61 O         -79.5685   25.0794  -75.4817 O.2       2 UNK        -0.5226 
     62 CA        -81.0639   26.1768  -77.0177 C.3       2 UNK         0.0269 
     63 CB        -82.1340   25.7476  -78.0431 C.3       2 UNK        -0.1926 
     64 N         -81.7404   26.7584  -75.8578 N.am      2 UNK        -0.4687 
     65 C         -81.2636   27.7542  -75.0984 C.2       1 UNK         0.5165 
     66 O         -80.2393   28.3828  -75.3699 O.2       1 UNK        -0.5079 
     67 H67       -81.2686   24.3380  -72.4385 H         1 UNK         0.0900 
     68 H68       -80.6049   25.7618  -73.2092 H         1 UNK         0.0900 
     69 H69       -81.0787   25.8216  -71.5079 H         1 UNK         0.0900 
     70 H70       -83.9729   27.2546  -73.6246 H         1 UNK         0.2959 
     71 H71       -82.7117   28.9338  -74.1295 H         1 UNK         0.1079 
     72 H72       -80.6987   29.5910  -73.0124 H         1 UNK         0.0837 
     73 H73       -80.3291   27.9769  -72.4938 H         1 UNK         0.0837 
     74 H74       -81.0538   31.1264  -70.7155 H         1 UNK         0.0685 
     75 H75       -81.2024   30.2224  -69.2280 H         1 UNK         0.0685 
     76 H76       -79.7651   27.6770  -69.8087 H         1 UNK         0.1434 
     77 H77       -75.7026   28.7408  -70.6159 H         1 UNK         0.1329 
     78 H78       -78.7862   31.6971  -70.9479 H         1 UNK         0.1335 
     79 H79       -76.5720   32.3411  -71.4010 H         1 UNK         0.0680 
     80 H80       -75.3444   31.5065  -70.4918 H         1 UNK         0.0680 
     81 H81       -73.7999   29.9954  -71.2226 H         1 UNK         0.1032 
     82 H82       -74.2015   28.8031  -72.4294 H         1 UNK         0.1032 
     83 H83       -72.5105   31.2570  -73.0737 H         1 UNK         0.0461 
     84 H84       -70.5326   28.6051  -73.8001 H         1 UNK         0.3453 
     85 H85       -69.6686   28.5875  -72.2847 H         1 UNK         0.3453 
     86 H86       -73.2945   28.9092  -74.6182 H         1 UNK         0.2984 
     87 H87       -73.0194   29.6569  -77.2051 H         1 UNK         0.0554 
     88 H88       -71.0524   30.9113  -78.0347 H         1 UNK         0.0847 
     89 H89       -71.0813   29.3063  -78.7457 H         1 UNK         0.0847 
     90 H90       -69.9611   29.6715  -77.4337 H         1 UNK         0.0847 
     91 H91       -72.8246   27.4725  -76.9724 H         1 UNK         0.3141 
     92 H92       -70.4166   25.2041  -76.1196 H         1 UNK         0.0743 
     93 H93       -72.4762   25.8845  -73.9486 H         1 UNK         0.0784 
     94 H94       -71.6913   24.3207  -74.1657 H         1 UNK         0.0784 
     95 H95       -70.7431   25.7222  -73.6985 H         1 UNK         0.0784 
     96 H96       -73.2961   24.9843  -76.0866 H         1 UNK         0.3213 
     97 H97       -73.6839   24.9502  -79.6474 H         1 UNK         0.0855 
     98 H98       -74.0437   22.7842  -77.5109 H         1 UNK         0.0814 
     99 H99       -73.1900   22.6009  -79.0343 H         1 UNK         0.0814 
    100 H100      -74.9268   22.8669  -79.0352 H         1 UNK         0.0814 
    101 H101      -75.6444   24.8025  -77.6200 H         1 UNK         0.3105 
    102 H102      -76.0582   28.3384  -77.1019 H         1 UNK         0.0547 
    103 H103      -77.3184   27.6977  -79.1807 H         1 UNK         0.0837 
    104 H104      -77.8476   26.2164  -78.3945 H         1 UNK         0.0837 
    105 H105      -78.3385   27.7930  -77.7584 H         1 UNK         0.0837 
    106 H106      -77.3174   25.9667  -76.0182 H         1 UNK         0.3020 
    107 H107      -75.3296   25.8368  -73.0684 H         1 UNK         0.1245 
    108 H108      -77.1277   27.5470  -72.7166 H         1 UNK         0.0781 
    109 H109      -78.2484   26.5835  -73.6180 H         1 UNK         0.0781 
    110 H110      -77.6494   26.1891  -69.1462 H         1 UNK         0.0836 
    111 H111      -76.1778   26.5160  -70.0258 H         1 UNK         0.0836 
    112 H112      -77.4419   24.1931  -74.0566 H         1 UNK         0.3022 
    113 H113      -75.4053   21.8849  -75.8645 H         1 UNK         0.0747 
    114 H114      -76.2589   20.2802  -74.1882 H         1 UNK         0.0793 
    115 H115      -75.0030   21.2760  -73.4735 H         1 UNK         0.0793 
    116 H116      -76.6897   21.5985  -73.0971 H         1 UNK         0.0793 
    117 H117      -78.1058   21.6585  -75.1820 H         1 UNK         0.3047 
    118 H118      -79.2608   22.2081  -78.1330 H         1 UNK         0.0822 
    119 H119      -81.1626   21.7273  -76.5861 H         1 UNK         0.0807 
    120 H120      -80.2207   22.2955  -75.2161 H         1 UNK         0.0807 
    121 H121      -79.7271   20.8519  -76.1070 H         1 UNK         0.0807 
    122 H122      -80.4707   24.0600  -78.3181 H         1 UNK         0.2946 
    123 H123      -80.4385   26.9367  -77.4872 H         1 UNK         0.1144 
    124 H124      -82.8125   26.5707  -78.2690 H         1 UNK         0.0793 
    125 H125      -82.7368   24.9146  -77.6780 H         1 UNK         0.0793 
    126 H126      -81.6854   25.4472  -78.9907 H         1 UNK         0.0793 
    127 H127      -82.5713   26.2827  -75.5361 H         1 UNK         0.2896 
@<TRIPOS>BOND
     1    1    2 1    
     2    1   67 1    
     3    1   68 1    
     4    1   69 1    
     5    2    3 2    
     6    2    4 am   BACKBONE|DICT|INTERRES
     7    4    5 1    
     8    4   70 1    
     9    5    6 1    
    10    5   65 1    
    11    5   71 1    
    12    6    7 1    
    13    6   72 1    
    14    6   73 1    
    15    7    8 1    
    16    8    9 1    
    17    8   74 1    
    18    8   75 1    
    19    9   10 ar   
    20    9   14 ar   
    21   10   11 ar   
    22   10   76 1    
    23   11   12 ar   
    24   11   48 1    
    25   12   13 ar   
    26   12   77 1    
    27   13   14 ar   
    28   13   15 1    
    29   14   78 1    
    30   15   16 1    
    31   15   79 1    
    32   15   80 1    
    33   16   17 1    
    34   17   18 1    
    35   17   81 1    
    36   17   82 1    
    37   18   19 1    
    38   18   22 1    
    39   18   83 1    
    40   19   20 am   BACKBONE|DICT|INTERRES
    41   19   21 2    
    42   20   84 1    
    43   20   85 1    
    44   22   23 am   BACKBONE|DICT|INTERRES
    45   22   86 1    
    46   23   24 2    
    47   23   25 1    
    48   25   26 1    
    49   25   27 1    
    50   25   87 1    
    51   26   88 1    
    52   26   89 1    
    53   26   90 1    
    54   27   28 am   BACKBONE|DICT|INTERRES
    55   27   91 1    
    56   28   29 2    
    57   28   30 1    
    58   30   31 1    
    59   30   32 1    
    60   30   92 1    
    61   31   93 1    
    62   31   94 1    
    63   31   95 1    
    64   32   33 am   BACKBONE|DICT|INTERRES
    65   32   96 1    
    66   33   34 2    
    67   33   35 1    
    68   35   36 1    
    69   35   37 1    
    70   35   97 1    
    71   36   98 1    
    72   36   99 1    
    73   36  100 1    
    74   37   38 am   BACKBONE|DICT|INTERRES
    75   37  101 1    
    76   38   39 2    
    77   38   40 1    
    78   40   41 1    
    79   40   42 1    
    80   40  102 1    
    81   41  103 1    
    82   41  104 1    
    83   41  105 1    
    84   42   43 am   BACKBONE|DICT|INTERRES
    85   42  106 1    
    86   43   44 2    
    87   43   45 1    
    88   45   46 1    
    89   45   49 1    
    90   45  107 1    
    91   46   47 1    
    92   46  108 1    
    93   46  109 1    
    94   47   48 1    
    95   48  110 1    
    96   48  111 1    
    97   49   50 am   BACKBONE|DICT|INTERRES
    98   49  112 1    
    99   50   51 2    
   100   50   52 1    
   101   52   53 1    
   102   52   54 1    
   103   52  113 1    
   104   53  114 1    
   105   53  115 1    
   106   53  116 1    
   107   54   55 am   BACKBONE|DICT|INTERRES
   108   54  117 1    
   109   55   56 2    
   110   55   57 1    
   111   57   58 1    
   112   57   59 1    
   113   57  118 1    
   114   58  119 1    
   115   58  120 1    
   116   58  121 1    
   117   59   60 am   BACKBONE|DICT|INTERRES
   118   59  122 1    
   119   60   61 2    
   120   60   62 1    
   121   62   63 1    
   122   62   64 1    
   123   62  123 1    
   124   63  124 1    
   125   63  125 1    
   126   63  126 1    
   127   64   65 am   BACKBONE|DICT|INTERRES
   128   64  127 1    
   129   65   66 2    
@<TRIPOS>SUBSTRUCTURE
     1 UNK         1 GROUP             0       ****    0 ROOT    
