@<TRIPOS>MOLECULE
3R135
127   129    1
SMALL
USER_CHARGES


@<TRIPOS>ATOM
      1 CA        -83.0254   26.3864  -70.1243 C.3       0 UNK        -0.1998 
      2 C         -83.2002   26.9340  -71.5328 C.2       0 UNK         0.4909 
      3 O         -84.3155   26.9423  -72.0543 O.2       0 UNK        -0.5240 
      4 N         -82.1042   27.3899  -72.1523 N.am      1 UNK        -0.4739 
      5 CA        -82.0811   27.9417  -73.5142 C.3       1 UNK         0.0864 
      6 C6        -80.8172   28.8014  -73.7572 C.3       11 UNK        -0.0881 
      7 S7        -80.8206   30.3446  -72.7802 S.3       11 UNK        -0.2682 
      8 C8        -79.8013   29.9258  -71.3252 C.3       11 UNK         0.0289 
      9 C9        -78.4137   29.4124  -71.6894 C.ar      11 UNK        -0.0687 
     10 C10       -77.9776   28.1737  -71.2100 C.ar      11 UNK        -0.0823 
     11 C11       -76.7117   27.6821  -71.5482 C.ar      11 UNK        -0.0830 
     12 C12       -75.8743   28.4534  -72.3620 C.ar      11 UNK        -0.1021 
     13 C13       -76.2902   29.7032  -72.8295 C.ar      11 UNK        -0.0753 
     14 C14       -77.5605   30.1766  -72.4910 C.ar      11 UNK        -0.0933 
     15 C15       -75.3643   30.5556  -73.6821 C.3       11 UNK         0.0166 
     16 S16       -74.3578   31.6452  -72.6288 S.3       11 UNK        -0.2615 
     17 C17       -73.6242   32.7893  -73.8512 C.3       11 UNK        -0.0865 
     18 CA        -72.1017   32.6190  -74.1487 C.3       10 UNK         0.0862 
     19 C         -71.1262   32.7233  -72.9339 C.2       10 UNK         0.5551 
     20 N         -71.5376   33.3201  -71.8229 N.am      10 UNK        -0.7319 
     21 O         -69.9620   32.3360  -73.0193 O.2       10 UNK        -0.5018 
     22 N         -71.8191   31.5181  -75.0844 N.am      10 UNK        -0.4509 
     23 C         -71.6969   30.2132  -74.8072 C.2       10 UNK         0.4899 
     24 O         -71.8382   29.7183  -73.6877 O.2       10 UNK        -0.4839 
     25 CA        -71.3836   29.3278  -76.0275 C.3       9 UNK         0.0222 
     26 CB        -69.9758   29.6046  -76.5991 C.3       9 UNK        -0.1966 
     27 N         -71.5994   27.8980  -75.7776 N.am      9 UNK        -0.4218 
     28 C         -70.8647   27.0478  -75.0401 C.2       9 UNK         0.5020 
     29 O         -69.8055   27.3462  -74.4853 O.2       9 UNK        -0.5274 
     30 CA        -71.3862   25.6029  -74.8907 C.3       8 UNK         0.0270 
     31 CB        -71.8255   25.3369  -73.4406 C.3       8 UNK        -0.1976 
     32 N         -72.4920   25.2846  -75.8012 N.am      8 UNK        -0.4313 
     33 C         -72.3420   25.0481  -77.1144 C.2       8 UNK         0.5041 
     34 O         -71.2423   24.9733  -77.6645 O.2       8 UNK        -0.5577 
     35 CA        -73.6100   24.8924  -77.9795 C.3       7 UNK         0.0284 
     36 CB        -73.8645   23.4069  -78.2841 C.3       7 UNK        -0.1958 
     37 N         -74.8265   25.4801  -77.4094 N.am      7 UNK        -0.4454 
     38 C         -74.9945   26.7633  -77.0580 C.2       7 UNK         0.5089 
     39 O         -74.1468   27.6380  -77.2350 O.2       7 UNK        -0.5125 
     40 CA        -76.2936   27.1152  -76.3103 C.3       6 UNK         0.0408 
     41 CB        -77.3907   27.5395  -77.2968 C.3       6 UNK        -0.1791 
     42 N         -76.7983   26.0353  -75.4550 N.am      6 UNK        -0.4762 
     43 C         -76.1135   25.4418  -74.4642 C.2       6 UNK         0.5007 
     44 O         -74.9430   25.7015  -74.1884 O.2       6 UNK        -0.5032 
     45 CA        -76.8501   24.3339  -73.6938 C.3       5 UNK         0.0783 
     46 C46       -77.9565   24.9152  -72.7708 C.3       11 UNK        -0.0857 
     47 S47       -77.4580   25.0056  -71.0198 S.3       11 UNK        -0.2512 
     48 C48       -76.2134   26.3444  -71.0068 C.3       11 UNK         0.0225 
     49 N         -77.3778   23.3595  -74.6485 N.am      5 UNK        -0.4615 
     50 C         -76.6494   22.3946  -75.2270 C.2       4 UNK         0.5053 
     51 O         -75.4811   22.1492  -74.9284 O.2       4 UNK        -0.5105 
     52 CA        -77.3272   21.5655  -76.3340 C.3       4 UNK         0.0263 
     53 CB        -77.8662   20.2455  -75.7601 C.3       4 UNK        -0.1981 
     54 N         -78.4150   22.2749  -77.0130 N.am      4 UNK        -0.4224 
     55 C         -78.2551   23.3558  -77.7900 C.2       3 UNK         0.4895 
     56 O         -77.1622   23.8505  -78.0615 O.2       3 UNK        -0.5091 
     57 CA        -79.5394   24.0364  -78.2944 C.3       3 UNK         0.0250 
     58 CB        -80.0244   23.3780  -79.5956 C.3       3 UNK        -0.1996 
     59 N         -80.6268   24.0429  -77.3070 N.am      3 UNK        -0.4254 
     60 C         -80.5496   24.6055  -76.0929 C.2       2 UNK         0.5004 
     61 O         -79.5334   25.1517  -75.6540 O.2       2 UNK        -0.5226 
     62 CA        -81.7869   24.4756  -75.1914 C.3       2 UNK         0.0269 
     63 CB        -81.7286   23.1619  -74.3946 C.3       2 UNK        -0.1926 
     64 N         -81.8719   25.5957  -74.2536 N.am      2 UNK        -0.4687 
     65 C         -82.1959   26.8499  -74.5997 C.2       1 UNK         0.5165 
     66 O         -82.5694   27.1648  -75.7312 O.2       1 UNK        -0.5079 
     67 H67       -81.9887   26.4368  -69.7917 H         1 UNK         0.0900 
     68 H68       -83.6341   26.9561  -69.4227 H         1 UNK         0.0900 
     69 H69       -83.3439   25.3451  -70.0845 H         1 UNK         0.0900 
     70 H70       -81.2155   27.3641  -71.6752 H         1 UNK         0.2959 
     71 H71       -82.9566   28.5843  -73.6351 H         1 UNK         0.1079 
     72 H72       -80.7582   29.1045  -74.8048 H         1 UNK         0.0837 
     73 H73       -79.9108   28.2234  -73.5705 H         1 UNK         0.0837 
     74 H74       -79.6926   30.8185  -70.7079 H         1 UNK         0.0685 
     75 H75       -80.3398   29.1995  -70.7154 H         1 UNK         0.0685 
     76 H76       -78.6232   27.5890  -70.5696 H         1 UNK         0.1434 
     77 H77       -74.8881   28.0907  -72.6209 H         1 UNK         0.1329 
     78 H78       -77.8867   31.1434  -72.8495 H         1 UNK         0.1335 
     79 H79       -75.9521   31.1539  -74.3800 H         1 UNK         0.0680 
     80 H80       -74.7115   29.9227  -74.2853 H         1 UNK         0.0680 
     81 H81       -74.1843   32.7267  -74.7852 H         1 UNK         0.1032 
     82 H82       -73.8080   33.8030  -73.4920 H         1 UNK         0.1032 
     83 H83       -71.8330   33.4987  -74.7349 H         1 UNK         0.0461 
     84 H84       -72.4928   33.6262  -71.7264 H         1 UNK         0.3453 
     85 H85       -70.8981   33.4138  -71.0496 H         1 UNK         0.3453 
     86 H86       -71.6584   31.8092  -76.0376 H         1 UNK         0.2984 
     87 H87       -72.1095   29.5892  -76.7991 H         1 UNK         0.0554 
     88 H88       -69.8976   30.6228  -76.9808 H         1 UNK         0.0847 
     89 H89       -69.7434   28.9337  -77.4262 H         1 UNK         0.0847 
     90 H90       -69.1987   29.4878  -75.8432 H         1 UNK         0.0847 
     91 H91       -72.4639   27.5429  -76.1749 H         1 UNK         0.3141 
     92 H92       -70.5548   24.9318  -75.1168 H         1 UNK         0.0743 
     93 H93       -72.5811   26.0511  -73.1112 H         1 UNK         0.0784 
     94 H94       -72.2345   24.3333  -73.3225 H         1 UNK         0.0784 
     95 H95       -70.9802   25.4264  -72.7571 H         1 UNK         0.0784 
     96 H96       -73.4280   25.3416  -75.4071 H         1 UNK         0.3213 
     97 H97       -73.4160   25.4070  -78.9227 H         1 UNK         0.0855 
     98 H98       -74.1271   22.8513  -77.3831 H         1 UNK         0.0814 
     99 H99       -72.9786   22.9358  -78.7125 H         1 UNK         0.0814 
    100 H100      -74.6734   23.2818  -79.0040 H         1 UNK         0.0814 
    101 H101      -75.6202   24.8549  -77.3013 H         1 UNK         0.3105 
    102 H102      -76.0761   27.9631  -75.6575 H         1 UNK         0.0547 
    103 H103      -77.0674   28.3919  -77.8956 H         1 UNK         0.0837 
    104 H104      -77.6424   26.7336  -77.9862 H         1 UNK         0.0837 
    105 H105      -78.3023   27.8342  -76.7765 H         1 UNK         0.0837 
    106 H106      -77.7630   25.7467  -75.6079 H         1 UNK         0.3020 
    107 H107      -76.1081   23.8218  -73.0760 H         1 UNK         0.1245 
    108 H108      -78.8369   24.2716  -72.7927 H         1 UNK         0.0781 
    109 H109      -78.3193   25.8907  -73.1020 H         1 UNK         0.0781 
    110 H110      -75.3330   26.0089  -71.5561 H         1 UNK         0.0836 
    111 H111      -75.8837   26.4951  -69.9783 H         1 UNK         0.0836 
    112 H112      -78.3065   23.5490  -75.0017 H         1 UNK         0.3022 
    113 H113      -76.5637   21.3308  -77.0790 H         1 UNK         0.0747 
    114 H114      -78.2774   19.6096  -76.5444 H         1 UNK         0.0793 
    115 H115      -77.0717   19.6797  -75.2711 H         1 UNK         0.0793 
    116 H116      -78.6483   20.4157  -75.0190 H         1 UNK         0.0793 
    117 H117      -79.3524   21.9382  -76.8487 H         1 UNK         0.3047 
    118 H118      -79.2926   25.0768  -78.5132 H         1 UNK         0.0822 
    119 H119      -80.8743   23.9138  -80.0189 H         1 UNK         0.0807 
    120 H120      -80.3243   22.3410  -79.4393 H         1 UNK         0.0807 
    121 H121      -79.2361   23.3791  -80.3500 H         1 UNK         0.0807 
    122 H122      -81.4916   23.6018  -77.5868 H         1 UNK         0.2946 
    123 H123      -82.6830   24.4761  -75.8166 H         1 UNK         0.1144 
    124 H124      -82.6048   23.0478  -73.7558 H         1 UNK         0.0793 
    125 H125      -80.8433   23.1099  -73.7598 H         1 UNK         0.0793 
    126 H126      -81.7032   22.2983  -75.0605 H         1 UNK         0.0793 
    127 H127      -81.5606   25.4282  -73.3090 H         1 UNK         0.2896 
@<TRIPOS>BOND
     1    1    2 1    
     2    1   67 1    
     3    1   68 1    
     4    1   69 1    
     5    2    3 2    
     6    2    4 am   BACKBONE|DICT|INTERRES
     7    4    5 1    
     8    4   70 1    
     9    5    6 1    
    10    5   65 1    
    11    5   71 1    
    12    6    7 1    
    13    6   72 1    
    14    6   73 1    
    15    7    8 1    
    16    8    9 1    
    17    8   74 1    
    18    8   75 1    
    19    9   10 ar   
    20    9   14 ar   
    21   10   11 ar   
    22   10   76 1    
    23   11   12 ar   
    24   11   48 1    
    25   12   13 ar   
    26   12   77 1    
    27   13   14 ar   
    28   13   15 1    
    29   14   78 1    
    30   15   16 1    
    31   15   79 1    
    32   15   80 1    
    33   16   17 1    
    34   17   18 1    
    35   17   81 1    
    36   17   82 1    
    37   18   19 1    
    38   18   22 1    
    39   18   83 1    
    40   19   20 am   BACKBONE|DICT|INTERRES
    41   19   21 2    
    42   20   84 1    
    43   20   85 1    
    44   22   23 am   BACKBONE|DICT|INTERRES
    45   22   86 1    
    46   23   24 2    
    47   23   25 1    
    48   25   26 1    
    49   25   27 1    
    50   25   87 1    
    51   26   88 1    
    52   26   89 1    
    53   26   90 1    
    54   27   28 am   BACKBONE|DICT|INTERRES
    55   27   91 1    
    56   28   29 2    
    57   28   30 1    
    58   30   31 1    
    59   30   32 1    
    60   30   92 1    
    61   31   93 1    
    62   31   94 1    
    63   31   95 1    
    64   32   33 am   BACKBONE|DICT|INTERRES
    65   32   96 1    
    66   33   34 2    
    67   33   35 1    
    68   35   36 1    
    69   35   37 1    
    70   35   97 1    
    71   36   98 1    
    72   36   99 1    
    73   36  100 1    
    74   37   38 am   BACKBONE|DICT|INTERRES
    75   37  101 1    
    76   38   39 2    
    77   38   40 1    
    78   40   41 1    
    79   40   42 1    
    80   40  102 1    
    81   41  103 1    
    82   41  104 1    
    83   41  105 1    
    84   42   43 am   BACKBONE|DICT|INTERRES
    85   42  106 1    
    86   43   44 2    
    87   43   45 1    
    88   45   46 1    
    89   45   49 1    
    90   45  107 1    
    91   46   47 1    
    92   46  108 1    
    93   46  109 1    
    94   47   48 1    
    95   48  110 1    
    96   48  111 1    
    97   49   50 am   BACKBONE|DICT|INTERRES
    98   49  112 1    
    99   50   51 2    
   100   50   52 1    
   101   52   53 1    
   102   52   54 1    
   103   52  113 1    
   104   53  114 1    
   105   53  115 1    
   106   53  116 1    
   107   54   55 am   BACKBONE|DICT|INTERRES
   108   54  117 1    
   109   55   56 2    
   110   55   57 1    
   111   57   58 1    
   112   57   59 1    
   113   57  118 1    
   114   58  119 1    
   115   58  120 1    
   116   58  121 1    
   117   59   60 am   BACKBONE|DICT|INTERRES
   118   59  122 1    
   119   60   61 2    
   120   60   62 1    
   121   62   63 1    
   122   62   64 1    
   123   62  123 1    
   124   63  124 1    
   125   63  125 1    
   126   63  126 1    
   127   64   65 am   BACKBONE|DICT|INTERRES
   128   64  127 1    
   129   65   66 2    
@<TRIPOS>SUBSTRUCTURE
     1 UNK         1 GROUP             0       ****    0 ROOT    
