@<TRIPOS>MOLECULE
3R135
127   129    1
SMALL
USER_CHARGES


@<TRIPOS>ATOM
      1 CA        -81.7884   21.7548  -71.2398 C.3       0 UNK        -0.1998 
      2 C         -82.2416   23.2029  -71.3476 C.2       0 UNK         0.4909 
      3 O         -83.4113   23.4996  -71.1033 O.2       0 UNK        -0.5240 
      4 N         -81.3232   24.1068  -71.7134 N.am      1 UNK        -0.4739 
      5 CA        -81.5736   25.5489  -71.8615 C.3       1 UNK         0.0864 
      6 C6        -80.2547   26.3619  -71.9244 C.3       11 UNK        -0.0881 
      7 S7        -79.0963   26.0314  -70.5508 S.3       11 UNK        -0.2682 
      8 C8        -77.4781   26.1996  -71.3794 C.3       11 UNK         0.0289 
      9 C9        -77.0585   27.6556  -71.5514 C.ar      11 UNK        -0.0687 
     10 C10       -77.6973   28.4700  -72.4906 C.ar      11 UNK        -0.0823 
     11 C11       -77.2984   29.7949  -72.6726 C.ar      11 UNK        -0.0830 
     12 C12       -76.2677   30.3150  -71.8901 C.ar      11 UNK        -0.1021 
     13 C13       -75.5889   29.5086  -70.9688 C.ar      11 UNK        -0.0753 
     14 C14       -76.0025   28.1820  -70.7982 C.ar      11 UNK        -0.0933 
     15 C15       -74.4263   30.0389  -70.1276 C.3       11 UNK         0.0166 
     16 S16       -73.5666   31.5031  -70.8113 S.3       11 UNK        -0.2615 
     17 C17       -72.5666   30.8020  -72.1731 C.3       11 UNK        -0.0865 
     18 CA        -73.1518   31.0193  -73.6040 C.3       10 UNK         0.0862 
     19 C         -73.0588   32.4841  -74.1390 C.2       10 UNK         0.5551 
     20 N         -73.0585   32.6929  -75.4506 N.am      10 UNK        -0.7319 
     21 O         -73.0012   33.4447  -73.3760 O.2       10 UNK        -0.5018 
     22 N         -72.6468   30.0059  -74.5455 N.am      10 UNK        -0.4509 
     23 C         -71.3667   29.8568  -74.9172 C.2       10 UNK         0.4899 
     24 O         -70.4508   30.6015  -74.5633 O.2       10 UNK        -0.4839 
     25 CA        -71.0714   28.6340  -75.8046 C.3       9 UNK         0.0222 
     26 CB        -69.5673   28.4152  -76.0715 C.3       9 UNK        -0.1966 
     27 N         -71.6942   27.4233  -75.2601 N.am      9 UNK        -0.4218 
     28 C         -71.4803   26.8557  -74.0617 C.2       9 UNK         0.5020 
     29 O         -70.6254   27.2282  -73.2571 O.2       9 UNK        -0.5274 
     30 CA        -72.4004   25.6840  -73.6767 C.3       8 UNK         0.0270 
     31 CB        -73.5340   26.1850  -72.7636 C.3       8 UNK        -0.1976 
     32 N         -72.9859   25.0059  -74.8353 N.am      8 UNK        -0.4313 
     33 C         -72.3116   24.2436  -75.7070 C.2       8 UNK         0.5041 
     34 O         -71.1190   23.9583  -75.5933 O.2       8 UNK        -0.5577 
     35 CA        -73.0983   23.7420  -76.9283 C.3       7 UNK         0.0284 
     36 CB        -73.9618   22.5231  -76.5629 C.3       7 UNK        -0.1958 
     37 N         -73.9392   24.7928  -77.5097 N.am      7 UNK        -0.4454 
     38 C         -73.4768   25.8292  -78.2241 C.2       7 UNK         0.5089 
     39 O         -72.2886   26.0006  -78.4938 O.2       7 UNK        -0.5125 
     40 CA        -74.5128   26.8582  -78.7094 C.3       6 UNK         0.0408 
     41 CB        -75.1085   26.4274  -80.0586 C.3       6 UNK        -0.1791 
     42 N         -75.5944   27.0692  -77.7457 N.am      6 UNK        -0.4762 
     43 C         -75.4551   27.7332  -76.5871 C.2       6 UNK         0.5007 
     44 O         -74.4049   28.2648  -76.2229 O.2       6 UNK        -0.5032 
     45 CA        -76.6779   27.7500  -75.6459 C.3       5 UNK         0.0783 
     46 C46       -77.6307   28.9334  -75.9561 C.3       11 UNK        -0.0857 
     47 S47       -77.0407   30.5361  -75.3140 S.3       11 UNK        -0.2512 
     48 C48       -77.9486   30.6611  -73.7388 C.3       11 UNK         0.0225 
     49 N         -77.4107   26.4784  -75.6538 N.am      5 UNK        -0.4615 
     50 C         -76.8909   25.2784  -75.3656 C.2       4 UNK         0.5053 
     51 O         -75.7488   25.1244  -74.9404 O.2       4 UNK        -0.5105 
     52 CA        -77.7519   24.0304  -75.6303 C.3       4 UNK         0.0263 
     53 CB        -78.1816   23.3892  -74.3008 C.3       4 UNK        -0.1981 
     54 N         -78.9432   24.2466  -76.4566 N.am      4 UNK        -0.4224 
     55 C         -79.0111   24.7418  -77.6994 C.2       3 UNK         0.4895 
     56 O         -78.0264   25.1278  -78.3316 O.2       3 UNK        -0.5091 
     57 CA        -80.4167   24.8816  -78.3255 C.3       3 UNK         0.0250 
     58 CB        -80.7737   23.6304  -79.1511 C.3       3 UNK        -0.1996 
     59 N         -81.4955   25.2300  -77.3768 N.am      3 UNK        -0.4254 
     60 C         -81.9691   24.5071  -76.3504 C.2       2 UNK         0.5004 
     61 O         -81.5700   23.3754  -76.0633 O.2       2 UNK        -0.5226 
     62 CA        -82.9911   25.1754  -75.4270 C.3       2 UNK         0.0269 
     63 CB        -84.3813   24.5350  -75.5713 C.3       2 UNK        -0.1926 
     64 N         -82.4881   24.9727  -74.0726 N.am      2 UNK        -0.4687 
     65 C         -82.4311   25.8919  -73.1028 C.2       1 UNK         0.5165 
     66 O         -82.9742   26.9948  -73.1796 O.2       1 UNK        -0.5079 
     67 H67       -81.9409   21.3888  -70.2248 H         1 UNK         0.0900 
     68 H68       -82.3672   21.1293  -71.9187 H         1 UNK         0.0900 
     69 H69       -80.7334   21.6377  -71.4875 H         1 UNK         0.0900 
     70 H70       -80.3680   23.8134  -71.8577 H         1 UNK         0.2959 
     71 H71       -82.1361   25.8809  -70.9859 H         1 UNK         0.1079 
     72 H72       -79.7459   26.1606  -72.8685 H         1 UNK         0.0837 
     73 H73       -80.4753   27.4314  -71.9159 H         1 UNK         0.0837 
     74 H74       -76.7354   25.6642  -70.7861 H         1 UNK         0.0685 
     75 H75       -77.4949   25.7027  -72.3496 H         1 UNK         0.0685 
     76 H76       -78.4877   28.0696  -73.1061 H         1 UNK         0.1434 
     77 H77       -75.9812   31.3474  -72.0296 H         1 UNK         0.1329 
     78 H78       -75.4942   27.5538  -70.0795 H         1 UNK         0.1335 
     79 H79       -73.6933   29.2482  -69.9603 H         1 UNK         0.0680 
     80 H80       -74.8181   30.3059  -69.1453 H         1 UNK         0.0680 
     81 H81       -71.5613   31.2221  -72.1116 H         1 UNK         0.1032 
     82 H82       -72.4449   29.7343  -71.9833 H         1 UNK         0.1032 
     83 H83       -74.2193   30.8162  -73.5553 H         1 UNK         0.0461 
     84 H84       -73.0031   33.6356  -75.8022 H         1 UNK         0.3453 
     85 H85       -73.1153   31.9157  -76.0890 H         1 UNK         0.3453 
     86 H86       -73.3376   29.3772  -74.9446 H         1 UNK         0.2984 
     87 H87       -71.5544   28.8222  -76.7647 H         1 UNK         0.0554 
     88 H88       -69.1320   29.2787  -76.5758 H         1 UNK         0.0847 
     89 H89       -69.4018   27.5484  -76.7113 H         1 UNK         0.0847 
     90 H90       -69.0073   28.2629  -75.1484 H         1 UNK         0.0847 
     91 H91       -72.4632   27.0597  -75.8071 H         1 UNK         0.3141 
     92 H92       -71.8021   24.9579  -73.1225 H         1 UNK         0.0743 
     93 H93       -73.1347   26.6654  -71.8693 H         1 UNK         0.0784 
     94 H94       -74.1669   26.9161  -73.2691 H         1 UNK         0.0784 
     95 H95       -74.1720   25.3648  -72.4339 H         1 UNK         0.0784 
     96 H96       -73.9920   25.1209  -74.9650 H         1 UNK         0.3213 
     97 H97       -72.3751   23.4282  -77.6846 H         1 UNK         0.0855 
     98 H98       -74.6905   22.7553  -75.7860 H         1 UNK         0.0814 
     99 H99       -73.3404   21.7085  -76.1884 H         1 UNK         0.0814 
    100 H100      -74.5026   22.1439  -77.4301 H         1 UNK         0.0814 
    101 H101      -74.9282   24.7520  -77.3135 H         1 UNK         0.3105 
    102 H102      -73.9947   27.8086  -78.8560 H         1 UNK         0.0547 
    103 H103      -75.7878   27.1840  -80.4516 H         1 UNK         0.0837 
    104 H104      -74.3243   26.2795  -80.8024 H         1 UNK         0.0837 
    105 H105      -75.6622   25.4910  -79.9770 H         1 UNK         0.0837 
    106 H106      -76.4827   26.6244  -77.9523 H         1 UNK         0.3020 
    107 H107      -76.2727   27.8684  -74.6402 H         1 UNK         0.1245 
    108 H108      -78.6177   28.7463  -75.5310 H         1 UNK         0.0781 
    109 H109      -77.7989   29.0297  -77.0307 H         1 UNK         0.0781 
    110 H110      -78.9958   30.3884  -73.8779 H         1 UNK         0.0836 
    111 H111      -77.9502   31.7037  -73.4171 H         1 UNK         0.0836 
    112 H112      -78.3514   26.5041  -76.0164 H         1 UNK         0.3022 
    113 H113      -77.1188   23.3196  -76.1641 H         1 UNK         0.0747 
    114 H114      -78.6814   22.4342  -74.4655 H         1 UNK         0.0793 
    115 H115      -77.3203   23.1947  -73.6597 H         1 UNK         0.0793 
    116 H116      -78.8646   24.0323  -73.7465 H         1 UNK         0.0793 
    117 H117      -79.8224   23.9018  -76.0771 H         1 UNK         0.3047 
    118 H118      -80.3555   25.7212  -79.0201 H         1 UNK         0.0822 
    119 H119      -80.0224   23.4456  -79.9202 H         1 UNK         0.0807 
    120 H120      -81.7317   23.7496  -79.6572 H         1 UNK         0.0807 
    121 H121      -80.8299   22.7332  -78.5340 H         1 UNK         0.0807 
    122 H122      -81.8762   26.1582  -77.5046 H         1 UNK         0.2946 
    123 H123      -83.0534   26.2417  -75.6572 H         1 UNK         0.1144 
    124 H124      -85.0976   24.9903  -74.8872 H         1 UNK         0.0793 
    125 H125      -84.3569   23.4641  -75.3646 H         1 UNK         0.0793 
    126 H126      -84.7680   24.6656  -76.5827 H         1 UNK         0.0793 
    127 H127      -81.9992   24.0974  -73.9348 H         1 UNK         0.2896 
@<TRIPOS>BOND
     1    1    2 1    
     2    1   67 1    
     3    1   68 1    
     4    1   69 1    
     5    2    3 2    
     6    2    4 am   BACKBONE|DICT|INTERRES
     7    4    5 1    
     8    4   70 1    
     9    5    6 1    
    10    5   65 1    
    11    5   71 1    
    12    6    7 1    
    13    6   72 1    
    14    6   73 1    
    15    7    8 1    
    16    8    9 1    
    17    8   74 1    
    18    8   75 1    
    19    9   10 ar   
    20    9   14 ar   
    21   10   11 ar   
    22   10   76 1    
    23   11   12 ar   
    24   11   48 1    
    25   12   13 ar   
    26   12   77 1    
    27   13   14 ar   
    28   13   15 1    
    29   14   78 1    
    30   15   16 1    
    31   15   79 1    
    32   15   80 1    
    33   16   17 1    
    34   17   18 1    
    35   17   81 1    
    36   17   82 1    
    37   18   19 1    
    38   18   22 1    
    39   18   83 1    
    40   19   20 am   BACKBONE|DICT|INTERRES
    41   19   21 2    
    42   20   84 1    
    43   20   85 1    
    44   22   23 am   BACKBONE|DICT|INTERRES
    45   22   86 1    
    46   23   24 2    
    47   23   25 1    
    48   25   26 1    
    49   25   27 1    
    50   25   87 1    
    51   26   88 1    
    52   26   89 1    
    53   26   90 1    
    54   27   28 am   BACKBONE|DICT|INTERRES
    55   27   91 1    
    56   28   29 2    
    57   28   30 1    
    58   30   31 1    
    59   30   32 1    
    60   30   92 1    
    61   31   93 1    
    62   31   94 1    
    63   31   95 1    
    64   32   33 am   BACKBONE|DICT|INTERRES
    65   32   96 1    
    66   33   34 2    
    67   33   35 1    
    68   35   36 1    
    69   35   37 1    
    70   35   97 1    
    71   36   98 1    
    72   36   99 1    
    73   36  100 1    
    74   37   38 am   BACKBONE|DICT|INTERRES
    75   37  101 1    
    76   38   39 2    
    77   38   40 1    
    78   40   41 1    
    79   40   42 1    
    80   40  102 1    
    81   41  103 1    
    82   41  104 1    
    83   41  105 1    
    84   42   43 am   BACKBONE|DICT|INTERRES
    85   42  106 1    
    86   43   44 2    
    87   43   45 1    
    88   45   46 1    
    89   45   49 1    
    90   45  107 1    
    91   46   47 1    
    92   46  108 1    
    93   46  109 1    
    94   47   48 1    
    95   48  110 1    
    96   48  111 1    
    97   49   50 am   BACKBONE|DICT|INTERRES
    98   49  112 1    
    99   50   51 2    
   100   50   52 1    
   101   52   53 1    
   102   52   54 1    
   103   52  113 1    
   104   53  114 1    
   105   53  115 1    
   106   53  116 1    
   107   54   55 am   BACKBONE|DICT|INTERRES
   108   54  117 1    
   109   55   56 2    
   110   55   57 1    
   111   57   58 1    
   112   57   59 1    
   113   57  118 1    
   114   58  119 1    
   115   58  120 1    
   116   58  121 1    
   117   59   60 am   BACKBONE|DICT|INTERRES
   118   59  122 1    
   119   60   61 2    
   120   60   62 1    
   121   62   63 1    
   122   62   64 1    
   123   62  123 1    
   124   63  124 1    
   125   63  125 1    
   126   63  126 1    
   127   64   65 am   BACKBONE|DICT|INTERRES
   128   64  127 1    
   129   65   66 2    
@<TRIPOS>SUBSTRUCTURE
     1 UNK         1 GROUP             0       ****    0 ROOT    
