@<TRIPOS>MOLECULE
3R135
127   129    1
SMALL
USER_CHARGES


@<TRIPOS>ATOM
      1 CA        -83.9985   25.2304  -74.7808 C.3       0 UNK        -0.1998 
      2 C         -82.9797   26.3274  -75.0484 C.2       0 UNK         0.4909 
      3 O         -82.5271   26.4804  -76.1832 O.2       0 UNK        -0.5240 
      4 N         -82.6137   27.0957  -74.0147 N.am      1 UNK        -0.4739 
      5 CA        -81.5887   28.1428  -74.0774 C.3       1 UNK         0.0864 
      6 C6        -81.6390   29.0830  -72.8455 C.3       11 UNK        -0.0881 
      7 S7        -81.5441   28.2331  -71.2282 S.3       11 UNK        -0.2682 
      8 C8        -80.2452   29.1814  -70.3732 C.3       11 UNK         0.0289 
      9 C9        -78.8529   28.8528  -70.8926 C.ar      11 UNK        -0.0687 
     10 C10       -78.2076   27.6857  -70.4734 C.ar      11 UNK        -0.0823 
     11 C11       -76.9191   27.3839  -70.9244 C.ar      11 UNK        -0.0830 
     12 C12       -76.2819   28.2513  -71.8158 C.ar      11 UNK        -0.1021 
     13 C13       -76.9057   29.4364  -72.2197 C.ar      11 UNK        -0.0753 
     14 C14       -78.1930   29.7287  -71.7596 C.ar      11 UNK        -0.0933 
     15 C15       -76.1956   30.4043  -73.1544 C.3       11 UNK         0.0166 
     16 S16       -75.3582   31.7488  -72.2545 S.3       11 UNK        -0.2615 
     17 C17       -73.9217   30.8978  -71.5116 C.3       11 UNK        -0.0865 
     18 CA        -72.5740   31.2610  -72.1878 C.3       10 UNK         0.0862 
     19 C         -71.3805   30.6485  -71.3951 C.2       10 UNK         0.5551 
     20 N         -70.5840   29.7554  -71.9700 N.am      10 UNK        -0.7319 
     21 O         -71.1735   30.9959  -70.2350 O.2       10 UNK        -0.5018 
     22 N         -72.5817   30.9521  -73.6286 N.am      10 UNK        -0.4509 
     23 C         -71.7411   31.4689  -74.5312 C.2       10 UNK         0.4899 
     24 O         -70.8548   32.2789  -74.2545 O.2       10 UNK        -0.4839 
     25 CA        -71.9168   30.9798  -75.9820 C.3       9 UNK         0.0222 
     26 CB        -70.9762   31.6992  -76.9676 C.3       9 UNK        -0.1966 
     27 N         -71.7146   29.5327  -76.1038 N.am      9 UNK        -0.4218 
     28 C         -72.6228   28.5987  -75.7965 C.2       9 UNK         0.5020 
     29 O         -73.7284   28.8519  -75.3134 O.2       9 UNK        -0.5274 
     30 CA        -72.2233   27.1347  -76.0386 C.3       8 UNK         0.0270 
     31 CB        -71.9276   26.4328  -74.7034 C.3       8 UNK        -0.1976 
     32 N         -73.2865   26.4160  -76.7431 N.am      8 UNK        -0.4313 
     33 C         -73.6550   26.6620  -78.0096 C.2       8 UNK         0.5041 
     34 O         -73.0551   27.4458  -78.7488 O.2       8 UNK        -0.5577 
     35 CA        -74.9086   25.9344  -78.5334 C.3       7 UNK         0.0284 
     36 CB        -74.9514   25.8190  -80.0726 C.3       7 UNK        -0.1958 
     37 N         -75.1406   24.6366  -77.8895 N.am      7 UNK        -0.4454 
     38 C         -74.3829   23.5341  -77.9818 C.2       7 UNK         0.5089 
     39 O         -73.3695   23.4556  -78.6782 O.2       7 UNK        -0.5125 
     40 CA        -74.8410   22.3080  -77.1636 C.3       6 UNK         0.0408 
     41 CB        -73.6797   21.3396  -76.8535 C.3       6 UNK        -0.1791 
     42 N         -75.5761   22.6340  -75.9334 N.am      6 UNK        -0.4762 
     43 C         -75.1358   23.3454  -74.8816 C.2       6 UNK         0.5007 
     44 O         -74.0401   23.9067  -74.8573 O.2       6 UNK        -0.5032 
     45 CA        -76.0876   23.4533  -73.6706 C.3       5 UNK         0.0783 
     46 C46       -75.7784   24.6763  -72.7698 C.3       11 UNK        -0.0857 
     47 S47       -76.7641   24.6317  -71.2367 S.3       11 UNK        -0.2512 
     48 C48       -76.2028   26.1459  -70.4055 C.3       11 UNK         0.0225 
     49 N         -77.4740   23.4758  -74.1379 N.am      5 UNK        -0.4615 
     50 C         -78.3929   22.5220  -73.9486 C.2       4 UNK         0.5053 
     51 O         -78.1762   21.4740  -73.3405 O.2       4 UNK        -0.5105 
     52 CA        -79.7879   22.7629  -74.5580 C.3       4 UNK         0.0263 
     53 CB        -80.7986   23.1359  -73.4613 C.3       4 UNK        -0.1981 
     54 N         -79.7837   23.8019  -75.5937 N.am      4 UNK        -0.4224 
     55 C         -79.2750   23.6325  -76.8245 C.2       3 UNK         0.4895 
     56 O         -78.8418   22.5575  -77.2398 O.2       3 UNK        -0.5091 
     57 CA        -79.1761   24.8737  -77.7300 C.3       3 UNK         0.0250 
     58 CB        -80.3904   24.9596  -78.6670 C.3       3 UNK        -0.1996 
     59 N         -79.0307   26.1335  -76.9929 N.am      3 UNK        -0.4254 
     60 C         -77.9819   26.4431  -76.2155 C.2       2 UNK         0.5004 
     61 O         -77.0264   25.6902  -76.0395 O.2       2 UNK        -0.5226 
     62 CA        -78.0110   27.7958  -75.4859 C.3       2 UNK         0.0269 
     63 CB        -77.3412   28.8689  -76.3592 C.3       2 UNK        -0.1926 
     64 N         -79.3590   28.2357  -75.1054 N.am      2 UNK        -0.4687 
     65 C         -80.1882   27.5383  -74.3138 C.2       1 UNK         0.5165 
     66 O         -79.8970   26.4469  -73.8185 O.2       1 UNK        -0.5079 
     67 H67       -84.9522   25.4851  -75.2420 H         1 UNK         0.0900 
     68 H68       -84.1628   25.0805  -73.7138 H         1 UNK         0.0900 
     69 H69       -83.6563   24.2876  -75.2065 H         1 UNK         0.0900 
     70 H70       -82.9787   26.9089  -73.0913 H         1 UNK         0.2959 
     71 H71       -81.8232   28.7527  -74.9532 H         1 UNK         0.1079 
     72 H72       -80.8588   29.8418  -72.9181 H         1 UNK         0.0837 
     73 H73       -82.5776   29.6391  -72.8612 H         1 UNK         0.0837 
     74 H74       -80.4528   30.2490  -70.4624 H         1 UNK         0.0685 
     75 H75       -80.2928   28.9537  -69.3073 H         1 UNK         0.0685 
     76 H76       -78.7077   27.0135  -69.7895 H         1 UNK         0.1434 
     77 H77       -75.2918   28.0123  -72.1784 H         1 UNK         0.1329 
     78 H78       -78.6751   30.6451  -72.0707 H         1 UNK         0.1335 
     79 H79       -76.9240   30.8529  -73.8301 H         1 UNK         0.0680 
     80 H80       -75.4813   29.8759  -73.7833 H         1 UNK         0.0680 
     81 H81       -74.0673   29.8192  -71.5270 H         1 UNK         0.1032 
     82 H82       -73.9014   31.1754  -70.4559 H         1 UNK         0.1032 
     83 H83       -72.4552   32.3428  -72.0994 H         1 UNK         0.0461 
     84 H84       -70.7373   29.4787  -72.9252 H         1 UNK         0.3453 
     85 H85       -69.8135   29.3705  -71.4468 H         1 UNK         0.3453 
     86 H86       -73.2561   30.2658  -73.9506 H         1 UNK         0.2984 
     87 H87       -72.9416   31.2159  -76.2775 H         1 UNK         0.0554 
     88 H88       -71.1614   31.3842  -77.9948 H         1 UNK         0.0847 
     89 H89       -69.9266   31.5071  -76.7413 H         1 UNK         0.0847 
     90 H90       -71.1247   32.7793  -76.9318 H         1 UNK         0.0847 
     91 H91       -70.8196   29.2354  -76.4659 H         1 UNK         0.3141 
     92 H92       -71.3233   27.1016  -76.6563 H         1 UNK         0.0743 
     93 H93       -72.8033   26.4195  -74.0526 H         1 UNK         0.0784 
     94 H94       -71.6141   25.4003  -74.8599 H         1 UNK         0.0784 
     95 H95       -71.1256   26.9371  -74.1630 H         1 UNK         0.0784 
     96 H96       -73.8204   25.7488  -76.1992 H         1 UNK         0.3213 
     97 H97       -75.7481   26.5663  -78.2433 H         1 UNK         0.0855 
     98 H98       -74.9477   26.8056  -80.5375 H         1 UNK         0.0814 
     99 H99       -75.8541   25.3085  -80.4077 H         1 UNK         0.0814 
    100 H100      -74.0911   25.2759  -80.4644 H         1 UNK         0.0814 
    101 H101      -75.9085   24.6313  -77.2229 H         1 UNK         0.3105 
    102 H102      -75.5494   21.7764  -77.8005 H         1 UNK         0.0547 
    103 H103      -73.2184   20.9718  -77.7708 H         1 UNK         0.0837 
    104 H104      -72.8968   21.8231  -76.2682 H         1 UNK         0.0837 
    105 H105      -74.0255   20.4685  -76.2975 H         1 UNK         0.0837 
    106 H106      -76.5139   22.2588  -75.8781 H         1 UNK         0.3020 
    107 H107      -75.9078   22.5515  -73.0809 H         1 UNK         0.1245 
    108 H108      -75.9790   25.6084  -73.3017 H         1 UNK         0.0781 
    109 H109      -74.7245   24.6966  -72.4862 H         1 UNK         0.0781 
    110 H110      -75.1214   26.2474  -70.5102 H         1 UNK         0.0836 
    111 H111      -76.3917   26.0453  -69.3357 H         1 UNK         0.0836 
    112 H112      -77.7189   24.2918  -74.6864 H         1 UNK         0.3022 
    113 H113      -80.1131   21.8248  -75.0130 H         1 UNK         0.0747 
    114 H114      -81.7978   23.2773  -73.8713 H         1 UNK         0.0793 
    115 H115      -80.8662   22.3469  -72.7111 H         1 UNK         0.0793 
    116 H116      -80.5135   24.0510  -72.9414 H         1 UNK         0.0793 
    117 H117      -80.0743   24.7288  -75.3058 H         1 UNK         0.3047 
    118 H118      -78.2829   24.7517  -78.3469 H         1 UNK         0.0822 
    119 H119      -80.2992   25.7947  -79.3618 H         1 UNK         0.0807 
    120 H120      -81.3213   25.0825  -78.1129 H         1 UNK         0.0807 
    121 H121      -80.4860   24.0518  -79.2644 H         1 UNK         0.0807 
    122 H122      -79.7939   26.7924  -77.0600 H         1 UNK         0.2946 
    123 H123      -77.4316   27.6803  -74.5671 H         1 UNK         0.1144 
    124 H124      -77.3386   29.8427  -75.8729 H         1 UNK         0.0793 
    125 H125      -77.8433   28.9802  -77.3210 H         1 UNK         0.0793 
    126 H126      -76.3007   28.6089  -76.5613 H         1 UNK         0.0793 
    127 H127      -79.6676   29.1199  -75.4838 H         1 UNK         0.2896 
@<TRIPOS>BOND
     1    1    2 1    
     2    1   67 1    
     3    1   68 1    
     4    1   69 1    
     5    2    3 2    
     6    2    4 am   BACKBONE|DICT|INTERRES
     7    4    5 1    
     8    4   70 1    
     9    5    6 1    
    10    5   65 1    
    11    5   71 1    
    12    6    7 1    
    13    6   72 1    
    14    6   73 1    
    15    7    8 1    
    16    8    9 1    
    17    8   74 1    
    18    8   75 1    
    19    9   10 ar   
    20    9   14 ar   
    21   10   11 ar   
    22   10   76 1    
    23   11   12 ar   
    24   11   48 1    
    25   12   13 ar   
    26   12   77 1    
    27   13   14 ar   
    28   13   15 1    
    29   14   78 1    
    30   15   16 1    
    31   15   79 1    
    32   15   80 1    
    33   16   17 1    
    34   17   18 1    
    35   17   81 1    
    36   17   82 1    
    37   18   19 1    
    38   18   22 1    
    39   18   83 1    
    40   19   20 am   BACKBONE|DICT|INTERRES
    41   19   21 2    
    42   20   84 1    
    43   20   85 1    
    44   22   23 am   BACKBONE|DICT|INTERRES
    45   22   86 1    
    46   23   24 2    
    47   23   25 1    
    48   25   26 1    
    49   25   27 1    
    50   25   87 1    
    51   26   88 1    
    52   26   89 1    
    53   26   90 1    
    54   27   28 am   BACKBONE|DICT|INTERRES
    55   27   91 1    
    56   28   29 2    
    57   28   30 1    
    58   30   31 1    
    59   30   32 1    
    60   30   92 1    
    61   31   93 1    
    62   31   94 1    
    63   31   95 1    
    64   32   33 am   BACKBONE|DICT|INTERRES
    65   32   96 1    
    66   33   34 2    
    67   33   35 1    
    68   35   36 1    
    69   35   37 1    
    70   35   97 1    
    71   36   98 1    
    72   36   99 1    
    73   36  100 1    
    74   37   38 am   BACKBONE|DICT|INTERRES
    75   37  101 1    
    76   38   39 2    
    77   38   40 1    
    78   40   41 1    
    79   40   42 1    
    80   40  102 1    
    81   41  103 1    
    82   41  104 1    
    83   41  105 1    
    84   42   43 am   BACKBONE|DICT|INTERRES
    85   42  106 1    
    86   43   44 2    
    87   43   45 1    
    88   45   46 1    
    89   45   49 1    
    90   45  107 1    
    91   46   47 1    
    92   46  108 1    
    93   46  109 1    
    94   47   48 1    
    95   48  110 1    
    96   48  111 1    
    97   49   50 am   BACKBONE|DICT|INTERRES
    98   49  112 1    
    99   50   51 2    
   100   50   52 1    
   101   52   53 1    
   102   52   54 1    
   103   52  113 1    
   104   53  114 1    
   105   53  115 1    
   106   53  116 1    
   107   54   55 am   BACKBONE|DICT|INTERRES
   108   54  117 1    
   109   55   56 2    
   110   55   57 1    
   111   57   58 1    
   112   57   59 1    
   113   57  118 1    
   114   58  119 1    
   115   58  120 1    
   116   58  121 1    
   117   59   60 am   BACKBONE|DICT|INTERRES
   118   59  122 1    
   119   60   61 2    
   120   60   62 1    
   121   62   63 1    
   122   62   64 1    
   123   62  123 1    
   124   63  124 1    
   125   63  125 1    
   126   63  126 1    
   127   64   65 am   BACKBONE|DICT|INTERRES
   128   64  127 1    
   129   65   66 2    
@<TRIPOS>SUBSTRUCTURE
     1 UNK         1 GROUP             0       ****    0 ROOT    
