@<TRIPOS>MOLECULE
3R135
127   129    1
SMALL
USER_CHARGES


@<TRIPOS>ATOM
      1 CA        -80.0387   24.7395  -70.2965 C.3       0 UNK        -0.1998 
      2 C         -81.0614   25.3745  -71.2260 C.2       0 UNK         0.4909 
      3 O         -81.8105   24.6615  -71.8917 O.2       0 UNK        -0.5240 
      4 N         -81.1037   26.7120  -71.2735 N.am      1 UNK        -0.4739 
      5 CA        -82.0595   27.5093  -72.0563 C.3       1 UNK         0.0864 
      6 C6        -82.0367   29.0324  -71.7128 C.3       11 UNK        -0.0881 
      7 S7        -81.4178   29.4386  -70.0358 S.3       11 UNK        -0.2682 
      8 C8        -79.9089   30.4157  -70.3745 C.3       11 UNK         0.0289 
      9 C9        -79.0020   29.7996  -71.4362 C.ar      11 UNK        -0.0687 
     10 C10       -78.3602   28.5778  -71.2087 C.ar      11 UNK        -0.0823 
     11 C11       -77.5579   28.0074  -72.2016 C.ar      11 UNK        -0.0830 
     12 C12       -77.3808   28.6758  -73.4150 C.ar      11 UNK        -0.1021 
     13 C13       -77.9833   29.9158  -73.6428 C.ar      11 UNK        -0.0753 
     14 C14       -78.8012   30.4650  -72.6512 C.ar      11 UNK        -0.0933 
     15 C15       -77.7862   30.6597  -74.9609 C.3       11 UNK         0.0166 
     16 S16       -76.0692   30.6507  -75.5763 S.3       11 UNK        -0.2615 
     17 C17       -75.1846   31.6431  -74.3221 C.3       11 UNK        -0.0865 
     18 CA        -73.8574   31.0018  -73.8281 C.3       10 UNK         0.0862 
     19 C         -74.0790   29.9150  -72.7364 C.2       10 UNK         0.5551 
     20 N         -73.6979   28.6620  -72.9580 N.am      10 UNK        -0.7319 
     21 O         -74.5703   30.2262  -71.6548 O.2       10 UNK        -0.5018 
     22 N         -73.0042   30.5719  -74.9487 N.am      10 UNK        -0.4509 
     23 C         -71.6671   30.5518  -74.9315 C.2       10 UNK         0.4899 
     24 O         -70.9813   30.9656  -73.9954 O.2       10 UNK        -0.4839 
     25 CA        -71.0024   29.9426  -76.1754 C.3       9 UNK         0.0222 
     26 CB        -69.6255   30.5643  -76.4940 C.3       9 UNK        -0.1966 
     27 N         -70.9414   28.4805  -76.0671 N.am      9 UNK        -0.4218 
     28 C         -70.1907   27.7344  -75.2369 C.2       9 UNK         0.5020 
     29 O         -69.3549   28.1986  -74.4608 O.2       9 UNK        -0.5274 
     30 CA        -70.3951   26.2037  -75.2524 C.3       8 UNK         0.0270 
     31 CB        -70.7437   25.6847  -73.8458 C.3       8 UNK        -0.1976 
     32 N         -71.4281   25.7599  -76.1923 N.am      8 UNK        -0.4313 
     33 C         -71.2442   25.6007  -77.5123 C.2       8 UNK         0.5041 
     34 O         -70.1506   25.7247  -78.0644 O.2       8 UNK        -0.5577 
     35 CA        -72.4838   25.2885  -78.3762 C.3       7 UNK         0.0284 
     36 CB        -72.5315   23.7919  -78.7222 C.3       7 UNK        -0.1958 
     37 N         -73.7560   25.6819  -77.7613 N.am      7 UNK        -0.4454 
     38 C         -74.0915   26.9354  -77.4157 C.2       7 UNK         0.5089 
     39 O         -73.3869   27.9175  -77.6503 O.2       7 UNK        -0.5125 
     40 CA        -75.3842   27.1263  -76.6020 C.3       6 UNK         0.0408 
     41 CB        -76.5292   27.6035  -77.5081 C.3       6 UNK        -0.1791 
     42 N         -75.8144   25.9368  -75.8627 N.am      6 UNK        -0.4762 
     43 C         -75.0924   25.2754  -74.9442 C.2       6 UNK         0.5007 
     44 O         -73.9755   25.6361  -74.5726 O.2       6 UNK        -0.5032 
     45 CA        -75.6929   23.9625  -74.3916 C.3       5 UNK         0.0783 
     46 C46       -76.2693   24.1391  -72.9641 C.3       11 UNK        -0.0857 
     47 S47       -77.6563   25.3275  -72.8678 S.3       11 UNK        -0.2512 
     48 C48       -76.8471   26.6866  -71.9692 C.3       11 UNK         0.0225 
     49 N         -76.6734   23.3333  -75.2847 N.am      5 UNK        -0.4615 
     50 C         -76.4698   22.9291  -76.5449 C.2       4 UNK         0.5053 
     51 O         -75.3977   23.0700  -77.1340 O.2       4 UNK        -0.5105 
     52 CA        -77.6619   22.3119  -77.3019 C.3       4 UNK         0.0263 
     53 CB        -77.5734   20.7735  -77.3111 C.3       4 UNK        -0.1981 
     54 N         -78.9871   22.7777  -76.8578 N.am      4 UNK        -0.4224 
     55 C         -79.6224   22.5479  -75.6996 C.2       3 UNK         0.4895 
     56 O         -79.1495   21.8846  -74.7758 O.2       3 UNK        -0.5091 
     57 CA        -80.9771   23.2547  -75.5212 C.3       3 UNK         0.0250 
     58 CB        -81.8630   22.5567  -74.4743 C.3       3 UNK        -0.1996 
     59 N         -80.7770   24.6522  -75.1303 N.am      3 UNK        -0.4254 
     60 C         -80.3739   25.6280  -75.9577 C.2       2 UNK         0.5004 
     61 O         -80.1734   25.4456  -77.1602 O.2       2 UNK        -0.5226 
     62 CA        -80.1097   27.0244  -75.3630 C.3       2 UNK         0.0269 
     63 CB        -80.6017   28.1533  -76.2934 C.3       2 UNK        -0.1926 
     64 N         -80.6033   27.2103  -73.9936 N.am      2 UNK        -0.4687 
     65 C         -81.8750   27.2994  -73.5732 C.2       1 UNK         0.5165 
     66 O         -82.8613   27.2185  -74.3057 O.2       1 UNK        -0.5079 
     67 H67       -80.5389   24.2941  -69.4372 H         1 UNK         0.0900 
     68 H68       -79.3134   25.4670  -69.9329 H         1 UNK         0.0900 
     69 H69       -79.4943   23.9530  -70.8185 H         1 UNK         0.0900 
     70 H70       -80.4909   27.2569  -70.6842 H         1 UNK         0.2959 
     71 H71       -83.0518   27.1287  -71.8033 H         1 UNK         0.1079 
     72 H72       -81.4622   29.6037  -72.4431 H         1 UNK         0.0837 
     73 H73       -83.0495   29.4300  -71.7960 H         1 UNK         0.0837 
     74 H74       -80.2112   31.4224  -70.6675 H         1 UNK         0.0685 
     75 H75       -79.3466   30.5275  -69.4465 H         1 UNK         0.0685 
     76 H76       -78.4891   28.0736  -70.2611 H         1 UNK         0.1434 
     77 H77       -76.7556   28.2329  -74.1765 H         1 UNK         0.1329 
     78 H78       -79.2875   31.4148  -72.8271 H         1 UNK         0.1335 
     79 H79       -78.1165   31.6959  -74.8736 H         1 UNK         0.0680 
     80 H80       -78.4180   30.1977  -75.7184 H         1 UNK         0.0680 
     81 H81       -74.9647   32.6112  -74.7743 H         1 UNK         0.1032 
     82 H82       -75.8455   31.8630  -73.4813 H         1 UNK         0.1032 
     83 H83       -73.3227   31.7995  -73.3085 H         1 UNK         0.0461 
     84 H84       -73.8197   27.9768  -72.2316 H         1 UNK         0.3453 
     85 H85       -73.2892   28.3984  -73.8384 H         1 UNK         0.3453 
     86 H86       -73.4971   30.2095  -75.7532 H         1 UNK         0.2984 
     87 H87       -71.6489   30.1540  -77.0289 H         1 UNK         0.0554 
     88 H88       -69.1865   30.1185  -77.3864 H         1 UNK         0.0847 
     89 H89       -68.9150   30.4449  -75.6759 H         1 UNK         0.0847 
     90 H90       -69.7211   31.6348  -76.6790 H         1 UNK         0.0847 
     91 H91       -71.6170   27.9968  -76.6501 H         1 UNK         0.3141 
     92 H92       -69.4430   25.7567  -75.5460 H         1 UNK         0.0743 
     93 H93       -69.9324   25.8830  -73.1442 H         1 UNK         0.0784 
     94 H94       -71.6381   26.1648  -73.4478 H         1 UNK         0.0784 
     95 H95       -70.9121   24.6077  -73.8473 H         1 UNK         0.0784 
     96 H96       -72.3604   25.6434  -75.8054 H         1 UNK         0.3213 
     97 H97       -72.3803   25.8531  -79.3052 H         1 UNK         0.0855 
     98 H98       -73.3608   23.5645  -79.3923 H         1 UNK         0.0814 
     99 H99       -72.6451   23.1758  -77.8291 H         1 UNK         0.0814 
    100 H100      -71.6150   23.4762  -79.2225 H         1 UNK         0.0814 
    101 H101      -74.3895   24.9277  -77.5171 H         1 UNK         0.3105 
    102 H102      -75.1743   27.9024  -75.8657 H         1 UNK         0.0547 
    103 H103      -77.4047   27.8866  -76.9253 H         1 UNK         0.0837 
    104 H104      -76.2322   28.4838  -78.0802 H         1 UNK         0.0837 
    105 H105      -76.8299   26.8358  -78.2218 H         1 UNK         0.0837 
    106 H106      -76.7130   25.5492  -76.1087 H         1 UNK         0.3020 
    107 H107      -74.8560   23.2641  -74.3217 H         1 UNK         0.1245 
    108 H108      -75.4771   24.4310  -72.2722 H         1 UNK         0.0781 
    109 H109      -76.6299   23.1780  -72.5939 H         1 UNK         0.0781 
    110 H110      -76.8065   26.4442  -70.9062 H         1 UNK         0.0836 
    111 H111      -75.8135   26.7860  -72.3025 H         1 UNK         0.0836 
    112 H112      -77.5751   23.1185  -74.8730 H         1 UNK         0.3022 
    113 H113      -77.5690   22.6489  -78.3355 H         1 UNK         0.0747 
    114 H114      -76.6334   20.4423  -77.7545 H         1 UNK         0.0793 
    115 H115      -78.3803   20.3330  -77.8966 H         1 UNK         0.0793 
    116 H116      -77.6196   20.3541  -76.3057 H         1 UNK         0.0793 
    117 H117      -79.4324   23.4449  -77.4795 H         1 UNK         0.3047 
    118 H118      -81.5067   23.2259  -76.4761 H         1 UNK         0.0822 
    119 H119      -82.0593   21.5220  -74.7581 H         1 UNK         0.0807 
    120 H120      -82.8270   23.0558  -74.3735 H         1 UNK         0.0807 
    121 H121      -81.3929   22.5398  -73.4903 H         1 UNK         0.0807 
    122 H122      -80.9109   24.8714  -74.1516 H         1 UNK         0.2946 
    123 H123      -79.0250   27.1088  -75.2908 H         1 UNK         0.1144 
    124 H124      -80.4858   29.1327  -75.8311 H         1 UNK         0.0793 
    125 H125      -81.6537   28.0324  -76.5533 H         1 UNK         0.0793 
    126 H126      -80.0386   28.1631  -77.2273 H         1 UNK         0.0793 
    127 H127      -79.8834   27.2762  -73.2848 H         1 UNK         0.2896 
@<TRIPOS>BOND
     1    1    2 1    
     2    1   67 1    
     3    1   68 1    
     4    1   69 1    
     5    2    3 2    
     6    2    4 am   BACKBONE|DICT|INTERRES
     7    4    5 1    
     8    4   70 1    
     9    5    6 1    
    10    5   65 1    
    11    5   71 1    
    12    6    7 1    
    13    6   72 1    
    14    6   73 1    
    15    7    8 1    
    16    8    9 1    
    17    8   74 1    
    18    8   75 1    
    19    9   10 ar   
    20    9   14 ar   
    21   10   11 ar   
    22   10   76 1    
    23   11   12 ar   
    24   11   48 1    
    25   12   13 ar   
    26   12   77 1    
    27   13   14 ar   
    28   13   15 1    
    29   14   78 1    
    30   15   16 1    
    31   15   79 1    
    32   15   80 1    
    33   16   17 1    
    34   17   18 1    
    35   17   81 1    
    36   17   82 1    
    37   18   19 1    
    38   18   22 1    
    39   18   83 1    
    40   19   20 am   BACKBONE|DICT|INTERRES
    41   19   21 2    
    42   20   84 1    
    43   20   85 1    
    44   22   23 am   BACKBONE|DICT|INTERRES
    45   22   86 1    
    46   23   24 2    
    47   23   25 1    
    48   25   26 1    
    49   25   27 1    
    50   25   87 1    
    51   26   88 1    
    52   26   89 1    
    53   26   90 1    
    54   27   28 am   BACKBONE|DICT|INTERRES
    55   27   91 1    
    56   28   29 2    
    57   28   30 1    
    58   30   31 1    
    59   30   32 1    
    60   30   92 1    
    61   31   93 1    
    62   31   94 1    
    63   31   95 1    
    64   32   33 am   BACKBONE|DICT|INTERRES
    65   32   96 1    
    66   33   34 2    
    67   33   35 1    
    68   35   36 1    
    69   35   37 1    
    70   35   97 1    
    71   36   98 1    
    72   36   99 1    
    73   36  100 1    
    74   37   38 am   BACKBONE|DICT|INTERRES
    75   37  101 1    
    76   38   39 2    
    77   38   40 1    
    78   40   41 1    
    79   40   42 1    
    80   40  102 1    
    81   41  103 1    
    82   41  104 1    
    83   41  105 1    
    84   42   43 am   BACKBONE|DICT|INTERRES
    85   42  106 1    
    86   43   44 2    
    87   43   45 1    
    88   45   46 1    
    89   45   49 1    
    90   45  107 1    
    91   46   47 1    
    92   46  108 1    
    93   46  109 1    
    94   47   48 1    
    95   48  110 1    
    96   48  111 1    
    97   49   50 am   BACKBONE|DICT|INTERRES
    98   49  112 1    
    99   50   51 2    
   100   50   52 1    
   101   52   53 1    
   102   52   54 1    
   103   52  113 1    
   104   53  114 1    
   105   53  115 1    
   106   53  116 1    
   107   54   55 am   BACKBONE|DICT|INTERRES
   108   54  117 1    
   109   55   56 2    
   110   55   57 1    
   111   57   58 1    
   112   57   59 1    
   113   57  118 1    
   114   58  119 1    
   115   58  120 1    
   116   58  121 1    
   117   59   60 am   BACKBONE|DICT|INTERRES
   118   59  122 1    
   119   60   61 2    
   120   60   62 1    
   121   62   63 1    
   122   62   64 1    
   123   62  123 1    
   124   63  124 1    
   125   63  125 1    
   126   63  126 1    
   127   64   65 am   BACKBONE|DICT|INTERRES
   128   64  127 1    
   129   65   66 2    
@<TRIPOS>SUBSTRUCTURE
     1 UNK         1 GROUP             0       ****    0 ROOT    
