@<TRIPOS>MOLECULE
3R135
127   129    1
SMALL
USER_CHARGES


@<TRIPOS>ATOM
      1 CA        -81.0759   31.6725  -74.8999 C.3       0 UNK        -0.1998 
      2 C         -80.7762   30.2632  -74.4127 C.2       0 UNK         0.4909 
      3 O         -79.8727   29.6139  -74.9395 O.2       0 UNK        -0.5240 
      4 N         -81.5196   29.7913  -73.4041 N.am      1 UNK        -0.4739 
      5 CA        -81.3787   28.4551  -72.8181 C.3       1 UNK         0.0864 
      6 C6        -82.0494   28.3391  -71.4221 C.3       11 UNK        -0.0881 
      7 S7        -81.5951   29.6902  -70.2765 S.3       11 UNK        -0.2682 
      8 C8        -80.2390   28.9537  -69.3016 C.3       11 UNK         0.0289 
      9 C9        -79.0082   28.6029  -70.1323 C.ar      11 UNK        -0.0687 
     10 C10       -78.3608   27.3803  -69.9294 C.ar      11 UNK        -0.0823 
     11 C11       -77.2376   27.0332  -70.6867 C.ar      11 UNK        -0.0830 
     12 C12       -76.7692   27.9144  -71.6658 C.ar      11 UNK        -0.1021 
     13 C13       -77.3953   29.1480  -71.8656 C.ar      11 UNK        -0.0753 
     14 C14       -78.5004   29.4946  -71.0844 C.ar      11 UNK        -0.0933 
     15 C15       -76.8815   30.1014  -72.9307 C.3       11 UNK         0.0166 
     16 S16       -75.4281   31.0192  -72.3401 S.3       11 UNK        -0.2615 
     17 C17       -75.0151   32.0028  -73.8220 C.3       11 UNK        -0.0865 
     18 CA        -74.3053   31.1760  -74.9262 C.3       10 UNK         0.0862 
     19 C         -73.9771   32.0608  -76.1582 C.2       10 UNK         0.5551 
     20 N         -74.9068   32.1880  -77.0951 N.am      10 UNK        -0.7319 
     21 O         -72.9109   32.6668  -76.2489 O.2       10 UNK        -0.5018 
     22 N         -73.1208   30.4749  -74.4108 N.am      10 UNK        -0.4509 
     23 C         -72.5705   29.4065  -74.9944 C.2       10 UNK         0.4899 
     24 O         -73.0149   28.8859  -76.0192 O.2       10 UNK        -0.4839 
     25 CA        -71.3569   28.7916  -74.2718 C.3       9 UNK         0.0222 
     26 CB        -71.8025   28.1084  -72.9660 C.3       9 UNK        -0.1966 
     27 N         -70.6797   27.7955  -75.1015 N.am      9 UNK        -0.4218 
     28 C         -69.9643   28.0344  -76.2061 C.2       9 UNK         0.5020 
     29 O         -69.6171   29.1602  -76.5667 O.2       9 UNK        -0.5274 
     30 CA        -69.5976   26.8158  -77.0796 C.3       8 UNK         0.0270 
     31 CB        -68.3197   26.1216  -76.5675 C.3       8 UNK        -0.1976 
     32 N         -70.7038   25.8596  -77.2766 N.am      8 UNK        -0.4313 
     33 C         -71.3017   25.0773  -76.3670 C.2       8 UNK         0.5041 
     34 O         -70.9582   25.0082  -75.1842 O.2       8 UNK        -0.5577 
     35 CA        -72.5491   24.3129  -76.8212 C.3       7 UNK         0.0284 
     36 CB        -72.4643   22.8210  -76.4571 C.3       7 UNK        -0.1958 
     37 N         -73.6851   24.9096  -76.1286 N.am      7 UNK        -0.4454 
     38 C         -74.4473   25.9004  -76.6022 C.2       7 UNK         0.5089 
     39 O         -74.3697   26.3181  -77.7593 O.2       7 UNK        -0.5125 
     40 CA        -75.4552   26.5262  -75.6119 C.3       6 UNK         0.0408 
     41 CB        -76.4015   27.5328  -76.2917 C.3       6 UNK        -0.1791 
     42 N         -76.2659   25.5257  -74.9159 N.am      6 UNK        -0.4762 
     43 C         -75.8715   24.7310  -73.9115 C.2       6 UNK         0.5007 
     44 O         -74.7363   24.7486  -73.4345 O.2       6 UNK        -0.5032 
     45 CA        -76.9108   23.7197  -73.3958 C.3       5 UNK         0.0783 
     46 C46       -77.9641   24.3966  -72.4784 C.3       11 UNK        -0.0857 
     47 S47       -77.5522   24.2545  -70.7098 S.3       11 UNK        -0.2512 
     48 C48       -76.5093   25.7216  -70.4257 C.3       11 UNK         0.0225 
     49 N         -77.5412   23.0416  -74.5289 N.am      5 UNK        -0.4615 
     50 C         -77.0310   21.9811  -75.1687 C.2       4 UNK         0.5053 
     51 O         -75.9955   21.4100  -74.8274 O.2       4 UNK        -0.5105 
     52 CA        -77.8100   21.4567  -76.3895 C.3       4 UNK         0.0263 
     53 CB        -78.7132   20.2812  -75.9826 C.3       4 UNK        -0.1981 
     54 N         -78.6264   22.4889  -77.0340 N.am      4 UNK        -0.4224 
     55 C         -78.1346   23.4834  -77.7865 C.2       3 UNK         0.4895 
     56 O         -76.9477   23.5868  -78.0941 O.2       3 UNK        -0.5091 
     57 CA        -79.1312   24.5609  -78.2535 C.3       3 UNK         0.0250 
     58 CB        -79.6937   24.2070  -79.6396 C.3       3 UNK        -0.1996 
     59 N         -80.2434   24.8057  -77.3235 N.am      3 UNK        -0.4254 
     60 C         -80.1024   25.2359  -76.0625 C.2       2 UNK         0.5004 
     61 O         -79.0107   25.4014  -75.5134 O.2       2 UNK        -0.5226 
     62 CA        -81.3815   25.4737  -75.2569 C.3       2 UNK         0.0269 
     63 CB        -81.8586   24.1730  -74.5877 C.3       2 UNK        -0.1926 
     64 N         -81.0848   26.4728  -74.2344 N.am      2 UNK        -0.4687 
     65 C         -81.9377   27.4013  -73.7936 C.2       1 UNK         0.5165 
     66 O         -83.1218   27.4596  -74.1350 O.2       1 UNK        -0.5079 
     67 H67       -80.1911   32.3001  -74.7967 H         1 UNK         0.0900 
     68 H68       -81.3597   31.6529  -75.9517 H         1 UNK         0.0900 
     69 H69       -81.8871   32.1345  -74.3375 H         1 UNK         0.0900 
     70 H70       -82.2546   30.3613  -73.0108 H         1 UNK         0.2959 
     71 H71       -80.3125   28.2606  -72.6914 H         1 UNK         0.1079 
     72 H72       -81.8038   27.3799  -70.9623 H         1 UNK         0.0837 
     73 H73       -83.1368   28.3555  -71.5191 H         1 UNK         0.0837 
     74 H74       -80.6224   28.0725  -68.7846 H         1 UNK         0.0685 
     75 H75       -79.9428   29.6616  -68.5267 H         1 UNK         0.0685 
     76 H76       -78.7274   26.6934  -69.1785 H         1 UNK         0.1434 
     77 H77       -75.9058   27.6525  -72.2627 H         1 UNK         0.1329 
     78 H78       -78.9831   30.4502  -71.2367 H         1 UNK         0.1335 
     79 H79       -77.6628   30.8034  -73.2269 H         1 UNK         0.0680 
     80 H80       -76.6207   29.5336  -73.8236 H         1 UNK         0.0680 
     81 H81       -74.3821   32.8344  -73.5061 H         1 UNK         0.1032 
     82 H82       -75.9310   32.4543  -74.2084 H         1 UNK         0.1032 
     83 H83       -75.0087   30.4114  -75.2612 H         1 UNK         0.0461 
     84 H84       -74.7180   32.7722  -77.8947 H         1 UNK         0.3453 
     85 H85       -75.7884   31.7043  -77.0273 H         1 UNK         0.3453 
     86 H86       -72.7057   30.8565  -73.5740 H         1 UNK         0.2984 
     87 H87       -70.6491   29.5894  -74.0382 H         1 UNK         0.0554 
     88 H88       -72.2768   28.8173  -72.2861 H         1 UNK         0.0847 
     89 H89       -70.9545   27.6747  -72.4358 H         1 UNK         0.0847 
     90 H90       -72.5216   27.3094  -73.1553 H         1 UNK         0.0847 
     91 H91       -70.8959   26.8177  -74.9149 H         1 UNK         0.3141 
     92 H92       -69.3744   27.2071  -78.0736 H         1 UNK         0.0743 
     93 H93       -67.4849   26.8230  -76.5357 H         1 UNK         0.0784 
     94 H94       -68.4430   25.7234  -75.5600 H         1 UNK         0.0784 
     95 H95       -68.0270   25.2988  -77.2198 H         1 UNK         0.0784 
     96 H96       -71.1129   25.8818  -78.2015 H         1 UNK         0.3213 
     97 H97       -72.6704   24.3993  -77.9033 H         1 UNK         0.0855 
     98 H98       -72.3428   22.6693  -75.3835 H         1 UNK         0.0814 
     99 H99       -71.6163   22.3470  -76.9527 H         1 UNK         0.0814 
    100 H100      -73.3637   22.2880  -76.7671 H         1 UNK         0.0814 
    101 H101      -73.7911   24.6738  -75.1460 H         1 UNK         0.3105 
    102 H102      -74.8740   27.0708  -74.8650 H         1 UNK         0.0547 
    103 H103      -75.8403   28.3558  -76.7363 H         1 UNK         0.0837 
    104 H104      -77.1062   27.9644  -75.5810 H         1 UNK         0.0837 
    105 H105      -76.9807   27.0622  -77.0867 H         1 UNK         0.0837 
    106 H106      -77.2289   25.4384  -75.2375 H         1 UNK         0.3020 
    107 H107      -76.3707   22.9665  -72.8165 H         1 UNK         0.1245 
    108 H108      -78.9292   23.9004  -72.5918 H         1 UNK         0.0781 
    109 H109      -78.1527   25.4374  -72.7483 H         1 UNK         0.0781 
    110 H110      -75.6073   25.6464  -71.0336 H         1 UNK         0.0836 
    111 H111      -76.1714   25.7110  -69.3886 H         1 UNK         0.0836 
    112 H112      -78.3518   23.5027  -74.9206 H         1 UNK         0.3022 
    113 H113      -77.0789   21.0915  -77.1144 H         1 UNK         0.0747 
    114 H114      -79.2211   19.8528  -76.8469 H         1 UNK         0.0793 
    115 H115      -78.1293   19.4820  -75.5236 H         1 UNK         0.0793 
    116 H116      -79.4731   20.5847  -75.2611 H         1 UNK         0.0793 
    117 H117      -79.6193   22.4699  -76.8523 H         1 UNK         0.3047 
    118 H118      -78.5717   25.4945  -78.3427 H         1 UNK         0.0822 
    119 H119      -80.3157   25.0110  -80.0336 H         1 UNK         0.0807 
    120 H120      -80.2953   23.2976  -79.6124 H         1 UNK         0.0807 
    121 H121      -78.8883   24.0433  -80.3574 H         1 UNK         0.0807 
    122 H122      -81.1746   24.6748  -77.6932 H         1 UNK         0.2946 
    123 H123      -82.1534   25.8497  -75.9329 H         1 UNK         0.1144 
    124 H124      -81.1038   23.7634  -73.9154 H         1 UNK         0.0793 
    125 H125      -82.0866   23.4080  -75.3308 H         1 UNK         0.0793 
    126 H126      -82.7664   24.3384  -74.0071 H         1 UNK         0.0793 
    127 H127      -80.1040   26.5298  -73.9890 H         1 UNK         0.2896 
@<TRIPOS>BOND
     1    1    2 1    
     2    1   67 1    
     3    1   68 1    
     4    1   69 1    
     5    2    3 2    
     6    2    4 am   BACKBONE|DICT|INTERRES
     7    4    5 1    
     8    4   70 1    
     9    5    6 1    
    10    5   65 1    
    11    5   71 1    
    12    6    7 1    
    13    6   72 1    
    14    6   73 1    
    15    7    8 1    
    16    8    9 1    
    17    8   74 1    
    18    8   75 1    
    19    9   10 ar   
    20    9   14 ar   
    21   10   11 ar   
    22   10   76 1    
    23   11   12 ar   
    24   11   48 1    
    25   12   13 ar   
    26   12   77 1    
    27   13   14 ar   
    28   13   15 1    
    29   14   78 1    
    30   15   16 1    
    31   15   79 1    
    32   15   80 1    
    33   16   17 1    
    34   17   18 1    
    35   17   81 1    
    36   17   82 1    
    37   18   19 1    
    38   18   22 1    
    39   18   83 1    
    40   19   20 am   BACKBONE|DICT|INTERRES
    41   19   21 2    
    42   20   84 1    
    43   20   85 1    
    44   22   23 am   BACKBONE|DICT|INTERRES
    45   22   86 1    
    46   23   24 2    
    47   23   25 1    
    48   25   26 1    
    49   25   27 1    
    50   25   87 1    
    51   26   88 1    
    52   26   89 1    
    53   26   90 1    
    54   27   28 am   BACKBONE|DICT|INTERRES
    55   27   91 1    
    56   28   29 2    
    57   28   30 1    
    58   30   31 1    
    59   30   32 1    
    60   30   92 1    
    61   31   93 1    
    62   31   94 1    
    63   31   95 1    
    64   32   33 am   BACKBONE|DICT|INTERRES
    65   32   96 1    
    66   33   34 2    
    67   33   35 1    
    68   35   36 1    
    69   35   37 1    
    70   35   97 1    
    71   36   98 1    
    72   36   99 1    
    73   36  100 1    
    74   37   38 am   BACKBONE|DICT|INTERRES
    75   37  101 1    
    76   38   39 2    
    77   38   40 1    
    78   40   41 1    
    79   40   42 1    
    80   40  102 1    
    81   41  103 1    
    82   41  104 1    
    83   41  105 1    
    84   42   43 am   BACKBONE|DICT|INTERRES
    85   42  106 1    
    86   43   44 2    
    87   43   45 1    
    88   45   46 1    
    89   45   49 1    
    90   45  107 1    
    91   46   47 1    
    92   46  108 1    
    93   46  109 1    
    94   47   48 1    
    95   48  110 1    
    96   48  111 1    
    97   49   50 am   BACKBONE|DICT|INTERRES
    98   49  112 1    
    99   50   51 2    
   100   50   52 1    
   101   52   53 1    
   102   52   54 1    
   103   52  113 1    
   104   53  114 1    
   105   53  115 1    
   106   53  116 1    
   107   54   55 am   BACKBONE|DICT|INTERRES
   108   54  117 1    
   109   55   56 2    
   110   55   57 1    
   111   57   58 1    
   112   57   59 1    
   113   57  118 1    
   114   58  119 1    
   115   58  120 1    
   116   58  121 1    
   117   59   60 am   BACKBONE|DICT|INTERRES
   118   59  122 1    
   119   60   61 2    
   120   60   62 1    
   121   62   63 1    
   122   62   64 1    
   123   62  123 1    
   124   63  124 1    
   125   63  125 1    
   126   63  126 1    
   127   64   65 am   BACKBONE|DICT|INTERRES
   128   64  127 1    
   129   65   66 2    
@<TRIPOS>SUBSTRUCTURE
     1 UNK         1 GROUP             0       ****    0 ROOT    
