@<TRIPOS>MOLECULE
3R135
127   129    1
SMALL
USER_CHARGES


@<TRIPOS>ATOM
      1 CA        -83.0625   27.3838  -71.4434 C.3       0 UNK        -0.1998 
      2 C         -82.1651   27.3808  -72.6707 C.2       0 UNK         0.4909 
      3 O         -81.4957   26.3832  -72.9332 O.2       0 UNK        -0.5240 
      4 N         -82.1609   28.4836  -73.4347 N.am      1 UNK        -0.4739 
      5 CA        -81.3177   28.7328  -74.6197 C.3       1 UNK         0.0864 
      6 C6        -79.8082   28.8573  -74.2716 C.3       11 UNK        -0.0881 
      7 S7        -79.4437   30.2668  -73.1737 S.3       11 UNK        -0.2682 
      8 C8        -79.1966   29.4546  -71.5603 C.3       11 UNK         0.0289 
      9 C9        -77.9968   28.5137  -71.5253 C.ar      11 UNK        -0.0687 
     10 C10       -78.1553   27.1953  -71.0902 C.ar      11 UNK        -0.0823 
     11 C11       -77.0510   26.3462  -70.9802 C.ar      11 UNK        -0.0830 
     12 C12       -75.7844   26.8178  -71.3362 C.ar      11 UNK        -0.1021 
     13 C13       -75.6053   28.1271  -71.7947 C.ar      11 UNK        -0.0753 
     14 C14       -76.7227   28.9710  -71.8758 C.ar      11 UNK        -0.0933 
     15 C15       -74.1893   28.5689  -72.1798 C.3       11 UNK         0.0166 
     16 S16       -73.9455   30.3672  -72.3955 S.3       11 UNK        -0.2615 
     17 C17       -74.5847   30.6281  -74.0901 C.3       11 UNK        -0.0865 
     18 CA        -73.5888   31.3640  -75.0244 C.3       10 UNK         0.0862 
     19 C         -73.4727   32.8780  -74.6734 C.2       10 UNK         0.5551 
     20 N         -72.3139   33.3810  -74.2642 N.am      10 UNK        -0.7319 
     21 O         -74.4523   33.6107  -74.7891 O.2       10 UNK        -0.5018 
     22 N         -72.3105   30.6431  -75.1400 N.am      10 UNK        -0.4509 
     23 C         -71.4159   30.8128  -76.1198 C.2       10 UNK         0.4899 
     24 O         -71.5846   31.5728  -77.0737 O.2       10 UNK        -0.4839 
     25 CA        -70.1077   30.0053  -76.0394 C.3       9 UNK         0.0222 
     26 CB        -69.0900   30.6838  -75.1014 C.3       9 UNK        -0.1966 
     27 N         -70.2879   28.5835  -75.7166 N.am      9 UNK        -0.4218 
     28 C         -70.6956   28.0106  -74.5767 C.2       9 UNK         0.5020 
     29 O         -70.9937   28.6392  -73.5600 O.2       9 UNK        -0.5274 
     30 CA        -70.8230   26.4745  -74.6057 C.3       8 UNK         0.0270 
     31 CB        -71.0792   25.8782  -73.2089 C.3       8 UNK        -0.1976 
     32 N         -71.8863   26.0443  -75.5196 N.am      8 UNK        -0.4313 
     33 C         -71.8028   26.0584  -76.8602 C.2       8 UNK         0.5041 
     34 O         -70.7770   26.3806  -77.4636 O.2       8 UNK        -0.5577 
     35 CA        -73.0509   25.6754  -77.6801 C.3       7 UNK         0.0284 
     36 CB        -72.9024   24.2552  -78.2483 C.3       7 UNK        -0.1958 
     37 N         -74.3048   25.7594  -76.9309 N.am      7 UNK        -0.4454 
     38 C         -74.8440   26.8867  -76.4419 C.2       7 UNK         0.5089 
     39 O         -74.3959   28.0105  -76.6663 O.2       7 UNK        -0.5125 
     40 CA        -76.0742   26.7357  -75.5248 C.3       6 UNK         0.0408 
     41 CB        -77.3470   27.0630  -76.3156 C.3       6 UNK        -0.1791 
     42 N         -76.2190   25.4061  -74.9184 N.am      6 UNK        -0.4762 
     43 C         -75.3007   24.7909  -74.1535 C.2       6 UNK         0.5007 
     44 O         -74.2286   25.3087  -73.8408 O.2       6 UNK        -0.5032 
     45 CA        -75.5640   23.3290  -73.7324 C.3       5 UNK         0.0783 
     46 C46       -75.8624   23.1999  -72.2186 C.3       11 UNK        -0.0857 
     47 S47       -77.5482   23.7191  -71.7411 S.3       11 UNK        -0.2512 
     48 C48       -77.2272   24.9383  -70.4298 C.3       11 UNK         0.0225 
     49 N         -76.5699   22.6486  -74.5546 N.am      5 UNK        -0.4615 
     50 C         -76.4669   22.4046  -75.8676 C.2       4 UNK         0.5053 
     51 O         -75.4648   22.6732  -76.5313 O.2       4 UNK        -0.5105 
     52 CA        -77.6972   21.7981  -76.5686 C.3       4 UNK         0.0263 
     53 CB        -77.5074   20.2852  -76.7623 C.3       4 UNK        -0.1981 
     54 N         -78.9782   22.0414  -75.8890 N.am      4 UNK        -0.4224 
     55 C         -79.5146   23.2478  -75.6535 C.2       3 UNK         0.4895 
     56 O         -78.9476   24.3101  -75.9149 O.2       3 UNK        -0.5091 
     57 CA        -80.8902   23.2568  -74.9657 C.3       3 UNK         0.0250 
     58 CB        -80.7315   23.1879  -73.4396 C.3       3 UNK        -0.1996 
     59 N         -81.6667   24.4500  -75.3099 N.am      3 UNK        -0.4254 
     60 C         -82.2602   24.6465  -76.4972 C.2       2 UNK         0.5004 
     61 O         -82.2434   23.8173  -77.4086 O.2       2 UNK        -0.5226 
     62 CA        -83.0328   25.9630  -76.7128 C.3       2 UNK         0.0269 
     63 CB        -84.5488   25.7126  -76.6455 C.3       2 UNK        -0.1926 
     64 N         -82.6856   27.0110  -75.7510 N.am      2 UNK        -0.4687 
     65 C         -81.5635   27.7434  -75.7881 C.2       1 UNK         0.5165 
     66 O         -80.7523   27.6722  -76.7121 O.2       1 UNK        -0.5079 
     67 H67       -83.7930   26.5782  -71.5112 H         1 UNK         0.0900 
     68 H68       -83.6016   28.3245  -71.3335 H         1 UNK         0.0900 
     69 H69       -82.4657   27.2278  -70.5452 H         1 UNK         0.0900 
     70 H70       -82.7530   29.2592  -73.1701 H         1 UNK         0.2959 
     71 H71       -81.6387   29.6991  -75.0122 H         1 UNK         0.1079 
     72 H72       -79.4303   27.9299  -73.8384 H         1 UNK         0.0837 
     73 H73       -79.2208   29.0314  -75.1740 H         1 UNK         0.0837 
     74 H74       -80.1115   28.9310  -71.2831 H         1 UNK         0.0685 
     75 H75       -79.0502   30.2273  -70.8046 H         1 UNK         0.0685 
     76 H76       -79.1369   26.8340  -70.8140 H         1 UNK         0.1434 
     77 H77       -74.9286   26.1616  -71.2564 H         1 UNK         0.1329 
     78 H78       -76.6198   29.9935  -72.2057 H         1 UNK         0.1335 
     79 H79       -73.4987   28.2405  -71.4018 H         1 UNK         0.0680 
     80 H80       -73.8851   28.0494  -73.0899 H         1 UNK         0.0680 
     81 H81       -74.8398   29.6651  -74.5328 H         1 UNK         0.1032 
     82 H82       -75.5291   31.1723  -74.0300 H         1 UNK         0.1032 
     83 H83       -74.0374   31.3425  -76.0196 H         1 UNK         0.0461 
     84 H84       -71.5112   32.7822  -74.1596 H         1 UNK         0.3453 
     85 H85       -72.2483   34.3624  -74.0449 H         1 UNK         0.3453 
     86 H86       -72.0736   30.0111  -74.3798 H         1 UNK         0.2984 
     87 H87       -69.6765   30.0151  -77.0417 H         1 UNK         0.0554 
     88 H88       -68.1373   30.1544  -75.1013 H         1 UNK         0.0847 
     89 H89       -69.4465   30.7312  -74.0722 H         1 UNK         0.0847 
     90 H90       -68.8909   31.7076  -75.4210 H         1 UNK         0.0847 
     91 H91       -70.1753   27.9463  -76.5028 H         1 UNK         0.3141 
     92 H92       -69.8726   26.0733  -74.9643 H         1 UNK         0.0743 
     93 H93       -70.2656   26.1255  -72.5259 H         1 UNK         0.0784 
     94 H94       -71.9998   26.2606  -72.7667 H         1 UNK         0.0784 
     95 H95       -71.1531   24.7914  -73.2471 H         1 UNK         0.0784 
     96 H96       -72.7706   25.7955  -75.0840 H         1 UNK         0.3213 
     97 H97       -73.1156   26.3759  -78.5154 H         1 UNK         0.0855 
     98 H98       -71.9951   24.1660  -78.8475 H         1 UNK         0.0814 
     99 H99       -73.7422   23.9945  -78.8927 H         1 UNK         0.0814 
    100 H100      -72.8451   23.5081  -77.4555 H         1 UNK         0.0814 
    101 H101      -74.7545   24.8807  -76.7034 H         1 UNK         0.3105 
    102 H102      -75.9766   27.4545  -74.7096 H         1 UNK         0.0547 
    103 H103      -77.4590   26.4154  -77.1861 H         1 UNK         0.0837 
    104 H104      -78.2369   26.9364  -75.7015 H         1 UNK         0.0837 
    105 H105      -77.3354   28.0936  -76.6723 H         1 UNK         0.0837 
    106 H106      -77.0769   24.9090  -75.1371 H         1 UNK         0.3020 
    107 H107      -74.6199   22.8099  -73.9140 H         1 UNK         0.1245 
    108 H108      -75.1164   23.7404  -71.6334 H         1 UNK         0.0781 
    109 H109      -75.7537   22.1555  -71.9226 H         1 UNK         0.0781 
    110 H110      -76.3565   24.6434  -69.8424 H         1 UNK         0.0836 
    111 H111      -78.0686   24.9220  -69.7354 H         1 UNK         0.0836 
    112 H112      -77.4353   22.4208  -74.0875 H         1 UNK         0.3022 
    113 H113      -77.7605   22.2631  -77.5546 H         1 UNK         0.0747 
    114 H114      -78.3165   19.8548  -77.3528 H         1 UNK         0.0793 
    115 H115      -76.5766   20.0726  -77.2906 H         1 UNK         0.0793 
    116 H116      -77.4681   19.7576  -75.8084 H         1 UNK         0.0793 
    117 H117      -79.5031   21.2208  -75.6213 H         1 UNK         0.3047 
    118 H118      -81.4496   22.3784  -75.2952 H         1 UNK         0.0822 
    119 H119      -80.1845   22.2946  -73.1360 H         1 UNK         0.0807 
    120 H120      -81.7001   23.1610  -72.9401 H         1 UNK         0.0807 
    121 H121      -80.1860   24.0514  -73.0576 H         1 UNK         0.0807 
    122 H122      -81.6791   25.1942  -74.6197 H         1 UNK         0.2946 
    123 H123      -82.7882   26.3171  -77.7171 H         1 UNK         0.1144 
    124 H124      -84.8532   24.9594  -77.3737 H         1 UNK         0.0793 
    125 H125      -85.1115   26.6196  -76.8671 H         1 UNK         0.0793 
    126 H126      -84.8561   25.3569  -75.6613 H         1 UNK         0.0793 
    127 H127      -83.3007   27.1302  -74.9592 H         1 UNK         0.2896 
@<TRIPOS>BOND
     1    1    2 1    
     2    1   67 1    
     3    1   68 1    
     4    1   69 1    
     5    2    3 2    
     6    2    4 am   BACKBONE|DICT|INTERRES
     7    4    5 1    
     8    4   70 1    
     9    5    6 1    
    10    5   65 1    
    11    5   71 1    
    12    6    7 1    
    13    6   72 1    
    14    6   73 1    
    15    7    8 1    
    16    8    9 1    
    17    8   74 1    
    18    8   75 1    
    19    9   10 ar   
    20    9   14 ar   
    21   10   11 ar   
    22   10   76 1    
    23   11   12 ar   
    24   11   48 1    
    25   12   13 ar   
    26   12   77 1    
    27   13   14 ar   
    28   13   15 1    
    29   14   78 1    
    30   15   16 1    
    31   15   79 1    
    32   15   80 1    
    33   16   17 1    
    34   17   18 1    
    35   17   81 1    
    36   17   82 1    
    37   18   19 1    
    38   18   22 1    
    39   18   83 1    
    40   19   20 am   BACKBONE|DICT|INTERRES
    41   19   21 2    
    42   20   84 1    
    43   20   85 1    
    44   22   23 am   BACKBONE|DICT|INTERRES
    45   22   86 1    
    46   23   24 2    
    47   23   25 1    
    48   25   26 1    
    49   25   27 1    
    50   25   87 1    
    51   26   88 1    
    52   26   89 1    
    53   26   90 1    
    54   27   28 am   BACKBONE|DICT|INTERRES
    55   27   91 1    
    56   28   29 2    
    57   28   30 1    
    58   30   31 1    
    59   30   32 1    
    60   30   92 1    
    61   31   93 1    
    62   31   94 1    
    63   31   95 1    
    64   32   33 am   BACKBONE|DICT|INTERRES
    65   32   96 1    
    66   33   34 2    
    67   33   35 1    
    68   35   36 1    
    69   35   37 1    
    70   35   97 1    
    71   36   98 1    
    72   36   99 1    
    73   36  100 1    
    74   37   38 am   BACKBONE|DICT|INTERRES
    75   37  101 1    
    76   38   39 2    
    77   38   40 1    
    78   40   41 1    
    79   40   42 1    
    80   40  102 1    
    81   41  103 1    
    82   41  104 1    
    83   41  105 1    
    84   42   43 am   BACKBONE|DICT|INTERRES
    85   42  106 1    
    86   43   44 2    
    87   43   45 1    
    88   45   46 1    
    89   45   49 1    
    90   45  107 1    
    91   46   47 1    
    92   46  108 1    
    93   46  109 1    
    94   47   48 1    
    95   48  110 1    
    96   48  111 1    
    97   49   50 am   BACKBONE|DICT|INTERRES
    98   49  112 1    
    99   50   51 2    
   100   50   52 1    
   101   52   53 1    
   102   52   54 1    
   103   52  113 1    
   104   53  114 1    
   105   53  115 1    
   106   53  116 1    
   107   54   55 am   BACKBONE|DICT|INTERRES
   108   54  117 1    
   109   55   56 2    
   110   55   57 1    
   111   57   58 1    
   112   57   59 1    
   113   57  118 1    
   114   58  119 1    
   115   58  120 1    
   116   58  121 1    
   117   59   60 am   BACKBONE|DICT|INTERRES
   118   59  122 1    
   119   60   61 2    
   120   60   62 1    
   121   62   63 1    
   122   62   64 1    
   123   62  123 1    
   124   63  124 1    
   125   63  125 1    
   126   63  126 1    
   127   64   65 am   BACKBONE|DICT|INTERRES
   128   64  127 1    
   129   65   66 2    
@<TRIPOS>SUBSTRUCTURE
     1 UNK         1 GROUP             0       ****    0 ROOT    
