@<TRIPOS>MOLECULE
3R135
127   129    1
SMALL
USER_CHARGES


@<TRIPOS>ATOM
      1 CA        -82.0700   25.6239  -75.7280 C.3       0 UNK        -0.1998 
      2 C         -81.2347   26.3430  -74.6804 C.2       0 UNK         0.4909 
      3 O         -80.5491   27.3087  -75.0064 O.2       0 UNK        -0.5240 
      4 N         -81.2810   25.8765  -73.4305 N.am      1 UNK        -0.4739 
      5 CA        -80.4754   26.3639  -72.3138 C.3       1 UNK         0.0864 
      6 C6        -81.2052   27.4930  -71.5455 C.3       11 UNK        -0.0881 
      7 S7        -80.0826   28.4983  -70.5179 S.3       11 UNK        -0.2682 
      8 C8        -80.3577   30.1740  -71.1812 C.3       11 UNK         0.0289 
      9 C9        -79.4862   30.4531  -72.3966 C.ar      11 UNK        -0.0687 
     10 C10       -79.9840   30.2877  -73.6936 C.ar      11 UNK        -0.0823 
     11 C11       -79.1812   30.5549  -74.8090 C.ar      11 UNK        -0.0830 
     12 C12       -77.8640   30.9868  -74.6056 C.ar      11 UNK        -0.1021 
     13 C13       -77.3451   31.1279  -73.3171 C.ar      11 UNK        -0.0753 
     14 C14       -78.1712   30.8873  -72.2163 C.ar      11 UNK        -0.0933 
     15 C15       -75.8767   31.4958  -73.1287 C.3       11 UNK         0.0166 
     16 S16       -74.9676   30.3250  -72.0588 S.3       11 UNK        -0.2615 
     17 C17       -75.7009   28.7132  -72.5116 C.3       11 UNK        -0.0865 
     18 CA        -74.7065   27.5332  -72.3991 C.3       10 UNK         0.0862 
     19 C         -75.4132   26.1518  -72.5027 C.2       10 UNK         0.5551 
     20 N         -74.7162   25.0878  -72.8803 N.am      10 UNK        -0.7319 
     21 O         -76.6057   26.0295  -72.2321 O.2       10 UNK        -0.5018 
     22 N         -73.6218   27.6499  -73.3806 N.am      10 UNK        -0.4509 
     23 C         -72.3162   27.7247  -73.1023 C.2       10 UNK         0.4899 
     24 O         -71.8599   27.8160  -71.9613 O.2       10 UNK        -0.4839 
     25 CA        -71.3582   27.6691  -74.3112 C.3       9 UNK         0.0222 
     26 CB        -69.9173   27.2827  -73.9154 C.3       9 UNK        -0.1966 
     27 N         -71.8406   26.8095  -75.4022 N.am      9 UNK        -0.4218 
     28 C         -72.1526   25.5036  -75.3324 C.2       9 UNK         0.5020 
     29 O         -72.0515   24.8378  -74.3002 O.2       9 UNK        -0.5274 
     30 CA        -72.7047   24.8273  -76.6029 C.3       8 UNK         0.0270 
     31 CB        -73.8824   23.8961  -76.2724 C.3       8 UNK        -0.1976 
     32 N         -73.1544   25.8088  -77.5901 N.am      8 UNK        -0.4313 
     33 C         -72.4822   26.1633  -78.6934 C.2       8 UNK         0.5041 
     34 O         -71.4318   25.6341  -79.0579 O.2       8 UNK        -0.5577 
     35 CA        -73.0523   27.3384  -79.5107 C.3       7 UNK         0.0284 
     36 CB        -73.9187   26.8228  -80.6708 C.3       7 UNK        -0.1958 
     37 N         -73.8305   28.2814  -78.7009 N.am      7 UNK        -0.4454 
     38 C         -73.3312   29.0294  -77.7057 C.2       7 UNK         0.5089 
     39 O         -72.1387   29.0514  -77.4032 O.2       7 UNK        -0.5125 
     40 CA        -74.3322   29.8362  -76.8609 C.3       6 UNK         0.0408 
     41 CB        -74.4011   31.2913  -77.3473 C.3       6 UNK        -0.1791 
     42 N         -75.6812   29.2648  -76.8499 N.am      6 UNK        -0.4762 
     43 C         -76.0234   28.0765  -76.3377 C.2       6 UNK         0.5007 
     44 O         -75.2008   27.3225  -75.8088 O.2       6 UNK        -0.5032 
     45 CA        -77.5188   27.6721  -76.4157 C.3       5 UNK         0.0783 
     46 C46       -78.3373   28.3260  -77.5743 C.3       11 UNK        -0.0857 
     47 S47       -78.5660   30.1413  -77.5502 S.3       11 UNK        -0.2512 
     48 C48       -79.7807   30.4062  -76.2100 C.3       11 UNK         0.0225 
     49 N         -77.6880   26.2120  -76.4353 N.am      5 UNK        -0.4615 
     50 C         -77.2236   25.3663  -77.3657 C.2       4 UNK         0.5053 
     51 O         -76.4655   25.7064  -78.2762 O.2       4 UNK        -0.5105 
     52 CA        -77.7212   23.9048  -77.2909 C.3       4 UNK         0.0263 
     53 CB        -77.2632   23.0641  -78.4984 C.3       4 UNK        -0.1981 
     54 N         -77.3490   23.2008  -76.0583 N.am      4 UNK        -0.4224 
     55 C         -77.8949   23.4098  -74.8542 C.2       3 UNK         0.4895 
     56 O         -78.7349   24.2856  -74.6415 O.2       3 UNK        -0.5091 
     57 CA        -77.4649   22.4901  -73.6985 C.3       3 UNK         0.0250 
     58 CB        -76.0387   21.9183  -73.8261 C.3       3 UNK        -0.1996 
     59 N         -77.6120   23.2449  -72.4588 N.am      3 UNK        -0.4254 
     60 C         -78.0542   22.7746  -71.2874 C.2       2 UNK         0.5004 
     61 O         -78.2024   21.5790  -71.0322 O.2       2 UNK        -0.5226 
     62 CA        -78.4451   23.8348  -70.2399 C.3       2 UNK         0.0269 
     63 CB        -77.2477   24.1879  -69.3430 C.3       2 UNK        -0.1926 
     64 N         -78.9604   25.0519  -70.8807 N.am      2 UNK        -0.4687 
     65 C         -80.1786   25.1384  -71.4317 C.2       1 UNK         0.5165 
     66 O         -81.0533   24.2786  -71.2841 O.2       1 UNK        -0.5079 
     67 H67       -82.7534   26.3234  -76.2084 H         1 UNK         0.0900 
     68 H68       -82.6582   24.8151  -75.2949 H         1 UNK         0.0900 
     69 H69       -81.4199   25.1998  -76.4927 H         1 UNK         0.0900 
     70 H70       -81.8134   25.0436  -73.2110 H         1 UNK         0.2959 
     71 H71       -79.5272   26.7405  -72.7077 H         1 UNK         0.1079 
     72 H72       -81.7036   28.1514  -72.2578 H         1 UNK         0.0837 
     73 H73       -82.0022   27.0925  -70.9159 H         1 UNK         0.0837 
     74 H74       -81.4129   30.3210  -71.4162 H         1 UNK         0.0685 
     75 H75       -80.1246   30.8970  -70.3979 H         1 UNK         0.0685 
     76 H76       -81.0017   29.9510  -73.8368 H         1 UNK         0.1434 
     77 H77       -77.2266   31.2085  -75.4483 H         1 UNK         0.1329 
     78 H78       -77.7763   31.0006  -71.2158 H         1 UNK         0.1335 
     79 H79       -75.8090   32.4963  -72.7001 H         1 UNK         0.0680 
     80 H80       -75.3653   31.5366  -74.0917 H         1 UNK         0.0680 
     81 H81       -76.1045   28.7571  -73.5224 H         1 UNK         0.1032 
     82 H82       -76.5562   28.5592  -71.8509 H         1 UNK         0.1032 
     83 H83       -74.2965   27.5537  -71.3883 H         1 UNK         0.0461 
     84 H84       -73.7392   25.1664  -73.1376 H         1 UNK         0.3453 
     85 H85       -75.1700   24.1920  -72.9095 H         1 UNK         0.3453 
     86 H86       -73.9184   27.5297  -74.3447 H         1 UNK         0.2984 
     87 H87       -71.3278   28.6818  -74.7152 H         1 UNK         0.0554 
     88 H88       -69.2564   27.2742  -74.7821 H         1 UNK         0.0847 
     89 H89       -69.8765   26.2963  -73.4522 H         1 UNK         0.0847 
     90 H90       -69.5020   27.9947  -73.2012 H         1 UNK         0.0847 
     91 H91       -71.9639   27.2826  -76.2905 H         1 UNK         0.3141 
     92 H92       -71.8981   24.2180  -77.0150 H         1 UNK         0.0743 
     93 H93       -74.6935   24.4385  -75.7850 H         1 UNK         0.0784 
     94 H94       -74.2796   23.4300  -77.1731 H         1 UNK         0.0784 
     95 H95       -73.5698   23.0921  -75.6054 H         1 UNK         0.0784 
     96 H96       -74.0140   26.2984  -77.3636 H         1 UNK         0.3213 
     97 H97       -72.2049   27.8835  -79.9323 H         1 UNK         0.0855 
     98 H98       -74.7924   26.2775  -80.3123 H         1 UNK         0.0814 
     99 H99       -73.3510   26.1432  -81.3078 H         1 UNK         0.0814 
    100 H100      -74.2673   27.6406  -81.3016 H         1 UNK         0.0814 
    101 H101      -74.8275   28.3067  -78.8611 H         1 UNK         0.3105 
    102 H102      -73.9657   29.8370  -75.8319 H         1 UNK         0.0547 
    103 H103      -74.7880   31.3598  -78.3648 H         1 UNK         0.0837 
    104 H104      -75.0389   31.8972  -76.7039 H         1 UNK         0.0837 
    105 H105      -73.4116   31.7509  -77.3432 H         1 UNK         0.0837 
    106 H106      -76.4188   29.8207  -77.2673 H         1 UNK         0.3020 
    107 H107      -77.9572   28.0017  -75.4726 H         1 UNK         0.1245 
    108 H108      -77.8894   28.0676  -78.5354 H         1 UNK         0.0781 
    109 H109      -79.3358   27.8857  -77.5974 H         1 UNK         0.0781 
    110 H110      -80.3306   31.3213  -76.4329 H         1 UNK         0.0836 
    111 H111      -80.5155   29.6009  -76.2303 H         1 UNK         0.0836 
    112 H112      -78.2532   25.8169  -75.6879 H         1 UNK         0.3022 
    113 H113      -78.8118   23.9516  -77.3307 H         1 UNK         0.0747 
    114 H114      -77.6972   22.0644  -78.4750 H         1 UNK         0.0793 
    115 H115      -77.5749   23.5262  -79.4362 H         1 UNK         0.0793 
    116 H116      -76.1788   22.9596  -78.5341 H         1 UNK         0.0793 
    117 H117      -76.6496   22.4791  -76.1497 H         1 UNK         0.3047 
    118 H118      -78.1723   21.6582  -73.6886 H         1 UNK         0.0822 
    119 H119      -75.7563   21.3644  -72.9304 H         1 UNK         0.0807 
    120 H120      -75.2946   22.6960  -73.9817 H         1 UNK         0.0807 
    121 H121      -75.9653   21.2206  -74.6609 H         1 UNK         0.0807 
    122 H122      -77.5582   24.2541  -72.5652 H         1 UNK         0.2946 
    123 H123      -79.2297   23.4073  -69.6111 H         1 UNK         0.1144 
    124 H124      -77.5246   24.9174  -68.5818 H         1 UNK         0.0793 
    125 H125      -76.4166   24.5997  -69.9159 H         1 UNK         0.0793 
    126 H126      -76.8774   23.3025  -68.8245 H         1 UNK         0.0793 
    127 H127      -78.2741   25.7692  -71.0921 H         1 UNK         0.2896 
@<TRIPOS>BOND
     1    1    2 1    
     2    1   67 1    
     3    1   68 1    
     4    1   69 1    
     5    2    3 2    
     6    2    4 am   BACKBONE|DICT|INTERRES
     7    4    5 1    
     8    4   70 1    
     9    5    6 1    
    10    5   65 1    
    11    5   71 1    
    12    6    7 1    
    13    6   72 1    
    14    6   73 1    
    15    7    8 1    
    16    8    9 1    
    17    8   74 1    
    18    8   75 1    
    19    9   10 ar   
    20    9   14 ar   
    21   10   11 ar   
    22   10   76 1    
    23   11   12 ar   
    24   11   48 1    
    25   12   13 ar   
    26   12   77 1    
    27   13   14 ar   
    28   13   15 1    
    29   14   78 1    
    30   15   16 1    
    31   15   79 1    
    32   15   80 1    
    33   16   17 1    
    34   17   18 1    
    35   17   81 1    
    36   17   82 1    
    37   18   19 1    
    38   18   22 1    
    39   18   83 1    
    40   19   20 am   BACKBONE|DICT|INTERRES
    41   19   21 2    
    42   20   84 1    
    43   20   85 1    
    44   22   23 am   BACKBONE|DICT|INTERRES
    45   22   86 1    
    46   23   24 2    
    47   23   25 1    
    48   25   26 1    
    49   25   27 1    
    50   25   87 1    
    51   26   88 1    
    52   26   89 1    
    53   26   90 1    
    54   27   28 am   BACKBONE|DICT|INTERRES
    55   27   91 1    
    56   28   29 2    
    57   28   30 1    
    58   30   31 1    
    59   30   32 1    
    60   30   92 1    
    61   31   93 1    
    62   31   94 1    
    63   31   95 1    
    64   32   33 am   BACKBONE|DICT|INTERRES
    65   32   96 1    
    66   33   34 2    
    67   33   35 1    
    68   35   36 1    
    69   35   37 1    
    70   35   97 1    
    71   36   98 1    
    72   36   99 1    
    73   36  100 1    
    74   37   38 am   BACKBONE|DICT|INTERRES
    75   37  101 1    
    76   38   39 2    
    77   38   40 1    
    78   40   41 1    
    79   40   42 1    
    80   40  102 1    
    81   41  103 1    
    82   41  104 1    
    83   41  105 1    
    84   42   43 am   BACKBONE|DICT|INTERRES
    85   42  106 1    
    86   43   44 2    
    87   43   45 1    
    88   45   46 1    
    89   45   49 1    
    90   45  107 1    
    91   46   47 1    
    92   46  108 1    
    93   46  109 1    
    94   47   48 1    
    95   48  110 1    
    96   48  111 1    
    97   49   50 am   BACKBONE|DICT|INTERRES
    98   49  112 1    
    99   50   51 2    
   100   50   52 1    
   101   52   53 1    
   102   52   54 1    
   103   52  113 1    
   104   53  114 1    
   105   53  115 1    
   106   53  116 1    
   107   54   55 am   BACKBONE|DICT|INTERRES
   108   54  117 1    
   109   55   56 2    
   110   55   57 1    
   111   57   58 1    
   112   57   59 1    
   113   57  118 1    
   114   58  119 1    
   115   58  120 1    
   116   58  121 1    
   117   59   60 am   BACKBONE|DICT|INTERRES
   118   59  122 1    
   119   60   61 2    
   120   60   62 1    
   121   62   63 1    
   122   62   64 1    
   123   62  123 1    
   124   63  124 1    
   125   63  125 1    
   126   63  126 1    
   127   64   65 am   BACKBONE|DICT|INTERRES
   128   64  127 1    
   129   65   66 2    
@<TRIPOS>SUBSTRUCTURE
     1 UNK         1 GROUP             0       ****    0 ROOT    
