@<TRIPOS>MOLECULE
3R135
127   129    1
SMALL
USER_CHARGES


@<TRIPOS>ATOM
      1 CA        -75.8202   22.7264  -73.9404 C.3       0 UNK        -0.1998 
      2 C         -76.5918   23.2906  -72.7568 C.2       0 UNK         0.4909 
      3 O         -76.0225   23.4685  -71.6797 O.2       0 UNK        -0.5240 
      4 N         -77.8784   23.5845  -72.9556 N.am      1 UNK        -0.4739 
      5 CA        -78.7854   24.1706  -71.9694 C.3       1 UNK         0.0864 
      6 C6        -78.7099   25.7206  -72.0232 C.3       11 UNK        -0.0881 
      7 S7        -79.4913   26.5621  -70.6041 S.3       11 UNK        -0.2682 
      8 C8        -78.3637   27.9750  -70.3511 C.3       11 UNK         0.0289 
      9 C9        -78.1168   28.8249  -71.5980 C.ar      11 UNK        -0.0687 
     10 C10       -79.1243   29.0715  -72.5398 C.ar      11 UNK        -0.0823 
     11 C11       -78.8659   29.8473  -73.6738 C.ar      11 UNK        -0.0830 
     12 C12       -77.6009   30.4164  -73.8434 C.ar      11 UNK        -0.1021 
     13 C13       -76.5881   30.1895  -72.9091 C.ar      11 UNK        -0.0753 
     14 C14       -76.8514   29.3845  -71.7962 C.ar      11 UNK        -0.0933 
     15 C15       -75.2044   30.7842  -73.1314 C.3       11 UNK         0.0166 
     16 S16       -74.5778   31.6681  -71.6670 S.3       11 UNK        -0.2615 
     17 C17       -73.0982   32.4996  -72.3450 C.3       11 UNK        -0.0865 
     18 CA        -71.8024   31.6361  -72.3797 C.3       10 UNK         0.0862 
     19 C         -71.3376   31.1388  -70.9845 C.2       10 UNK         0.5551 
     20 N         -71.0092   32.0515  -70.0798 N.am      10 UNK        -0.7319 
     21 O         -71.2662   29.9423  -70.7104 O.2       10 UNK        -0.5018 
     22 N         -71.8740   30.5438  -73.3580 N.am      10 UNK        -0.4509 
     23 C         -71.8217   30.6932  -74.6843 C.2       10 UNK         0.4899 
     24 O         -71.7164   31.7887  -75.2369 O.2       10 UNK        -0.4839 
     25 CA        -71.9039   29.4354  -75.5675 C.3       9 UNK         0.0222 
     26 CB        -70.4994   28.8698  -75.8522 C.3       9 UNK        -0.1966 
     27 N         -72.8189   28.3793  -75.1142 N.am      9 UNK        -0.4218 
     28 C         -72.7246   27.5670  -74.0504 C.2       9 UNK         0.5020 
     29 O         -71.8927   27.6938  -73.1523 O.2       9 UNK        -0.5274 
     30 CA        -73.7017   26.3765  -74.0152 C.3       8 UNK         0.0270 
     31 CB        -75.0823   26.8055  -73.4948 C.3       8 UNK        -0.1976 
     32 N         -73.8383   25.7438  -75.3318 N.am      8 UNK        -0.4313 
     33 C         -72.8424   25.1195  -75.9816 C.2       8 UNK         0.5041 
     34 O         -71.7388   24.8855  -75.4879 O.2       8 UNK        -0.5577 
     35 CA        -73.1088   24.7107  -77.4380 C.3       7 UNK         0.0284 
     36 CB        -73.7174   23.3004  -77.5065 C.3       7 UNK        -0.1958 
     37 N         -73.9818   25.6757  -78.1128 N.am      7 UNK        -0.4454 
     38 C         -73.5539   26.8339  -78.6390 C.2       7 UNK         0.5089 
     39 O         -72.3689   27.1625  -78.6914 O.2       7 UNK        -0.5125 
     40 CA        -74.6174   27.8008  -79.1959 C.3       6 UNK         0.0408 
     41 CB        -74.7992   27.5818  -80.7060 C.3       6 UNK        -0.1791 
     42 N         -75.9194   27.6930  -78.5319 N.am      6 UNK        -0.4762 
     43 C         -76.1613   28.0369  -77.2576 C.2       6 UNK         0.5007 
     44 O         -75.3127   28.5377  -76.5201 O.2       6 UNK        -0.5032 
     45 CA        -77.5628   27.7049  -76.6943 C.3       5 UNK         0.0783 
     46 C46       -78.5187   28.9092  -76.8686 C.3       11 UNK        -0.0857 
     47 S47       -80.0576   28.7007  -75.9077 S.3       11 UNK        -0.2512 
     48 C48       -79.9562   30.0741  -74.7116 C.3       11 UNK         0.0225 
     49 N         -78.1318   26.4789  -77.2767 N.am      5 UNK        -0.4615 
     50 C         -77.5562   25.2699  -77.2563 C.2       4 UNK         0.5053 
     51 O         -76.4880   25.0393  -76.6860 O.2       4 UNK        -0.5105 
     52 CA        -78.2779   24.1673  -78.0550 C.3       4 UNK         0.0263 
     53 CB        -77.5037   22.8322  -78.0784 C.3       4 UNK        -0.1981 
     54 N         -79.6643   23.9637  -77.6177 N.am      4 UNK        -0.4224 
     55 C         -80.0658   23.5759  -76.4002 C.2       3 UNK         0.4895 
     56 O         -79.2985   23.3336  -75.4634 O.2       3 UNK        -0.5091 
     57 CA        -81.5811   23.4092  -76.2092 C.3       3 UNK         0.0250 
     58 CB        -82.0737   22.0899  -76.8275 C.3       3 UNK        -0.1996 
     59 N         -81.8501   23.3949  -74.7780 N.am      3 UNK        -0.4254 
     60 C         -82.7750   24.1018  -74.1250 C.2       2 UNK         0.5004 
     61 O         -83.6815   24.7244  -74.6788 O.2       2 UNK        -0.5226 
     62 CA        -82.6302   24.1760  -72.5919 C.3       2 UNK         0.0269 
     63 CB        -83.2791   22.9613  -71.8993 C.3       2 UNK        -0.1926 
     64 N         -81.2393   24.3965  -72.1544 N.am      2 UNK        -0.4687 
     65 C         -80.1843   23.5705  -72.2284 C.2       1 UNK         0.5165 
     66 O         -80.2801   22.3844  -72.5537 O.2       1 UNK        -0.5079 
     67 H67       -76.3918   22.8039  -74.8652 H         1 UNK         0.0900 
     68 H68       -74.8880   23.2734  -74.0768 H         1 UNK         0.0900 
     69 H69       -75.5810   21.6773  -73.7705 H         1 UNK         0.0900 
     70 H70       -78.3137   23.3807  -73.8552 H         1 UNK         0.2959 
     71 H71       -78.4901   23.8356  -70.9726 H         1 UNK         0.1079 
     72 H72       -79.1331   26.1028  -72.9546 H         1 UNK         0.0837 
     73 H73       -77.6614   26.0203  -72.0370 H         1 UNK         0.0837 
     74 H74       -77.4192   27.5864  -69.9666 H         1 UNK         0.0685 
     75 H75       -78.7755   28.6147  -69.5698 H         1 UNK         0.0685 
     76 H76       -80.1093   28.6480  -72.4016 H         1 UNK         0.1434 
     77 H77       -77.3993   31.0307  -74.7098 H         1 UNK         0.1329 
     78 H78       -76.0647   29.1999  -71.0774 H         1 UNK         0.1335 
     79 H79       -74.5238   29.9724  -73.3814 H         1 UNK         0.0680 
     80 H80       -75.2098   31.4641  -73.9847 H         1 UNK         0.0680 
     81 H81       -72.9245   33.3936  -71.7443 H         1 UNK         0.1032 
     82 H82       -73.3278   32.8782  -73.3417 H         1 UNK         0.1032 
     83 H83       -70.9928   32.2851  -72.7199 H         1 UNK         0.0461 
     84 H84       -71.0549   33.0366  -70.2883 H         1 UNK         0.3453 
     85 H85       -70.7057   31.7475  -69.1679 H         1 UNK         0.3453 
     86 H86       -71.8936   29.6034  -72.9678 H         1 UNK         0.2984 
     87 H87       -72.3159   29.7628  -76.5235 H         1 UNK         0.0554 
     88 H88       -69.8539   29.6313  -76.2918 H         1 UNK         0.0847 
     89 H89       -70.5445   28.0377  -76.5555 H         1 UNK         0.0847 
     90 H90       -70.0107   28.5152  -74.9442 H         1 UNK         0.0847 
     91 H91       -73.6293   28.2481  -75.7163 H         1 UNK         0.3141 
     92 H92       -73.2983   25.6273  -73.3306 H         1 UNK         0.0743 
     93 H93       -75.0202   27.1159  -72.4513 H         1 UNK         0.0784 
     94 H94       -75.4930   27.6430  -74.0570 H         1 UNK         0.0784 
     95 H95       -75.7994   25.9883  -73.5495 H         1 UNK         0.0784 
     96 H96       -74.7367   25.8187  -75.7952 H         1 UNK         0.3213 
     97 H97       -72.1483   24.6835  -77.9578 H         1 UNK         0.0855 
     98 H98       -74.6428   23.2246  -76.9361 H         1 UNK         0.0814 
     99 H99       -73.0270   22.5637  -77.0938 H         1 UNK         0.0814 
    100 H100      -73.9270   23.0063  -78.5348 H         1 UNK         0.0814 
    101 H101      -74.9771   25.5008  -78.0517 H         1 UNK         0.3105 
    102 H102      -74.2474   28.8169  -79.0424 H         1 UNK         0.0547 
    103 H103      -73.8487   27.6854  -81.2316 H         1 UNK         0.0837 
    104 H104      -75.1861   26.5865  -80.9279 H         1 UNK         0.0837 
    105 H105      -75.4842   28.3134  -81.1346 H         1 UNK         0.0837 
    106 H106      -76.6741   27.2929  -79.0705 H         1 UNK         0.3020 
    107 H107      -77.4303   27.5243  -75.6249 H         1 UNK         0.1245 
    108 H108      -78.7851   29.0376  -77.9194 H         1 UNK         0.0781 
    109 H109      -78.0340   29.8408  -76.5756 H         1 UNK         0.0781 
    110 H110      -80.9205   30.1749  -74.2114 H         1 UNK         0.0836 
    111 H111      -79.7945   31.0131  -75.2435 H         1 UNK         0.0836 
    112 H112      -79.0247   26.5832  -77.7363 H         1 UNK         0.3022 
    113 H113      -78.3315   24.5235  -79.0848 H         1 UNK         0.0747 
    114 H114      -78.0325   22.0778  -78.6606 H         1 UNK         0.0793 
    115 H115      -77.3472   22.4311  -77.0770 H         1 UNK         0.0793 
    116 H116      -76.5226   22.9610  -78.5354 H         1 UNK         0.0793 
    117 H117      -80.3722   24.1379  -78.3182 H         1 UNK         0.3047 
    118 H118      -82.0876   24.2541  -76.6810 H         1 UNK         0.0822 
    119 H119      -83.1442   21.9565  -76.6704 H         1 UNK         0.0807 
    120 H120      -81.5629   21.2280  -76.3957 H         1 UNK         0.0807 
    121 H121      -81.8996   22.0683  -77.9039 H         1 UNK         0.0807 
    122 H122      -81.1293   22.9433  -74.2202 H         1 UNK         0.2946 
    123 H123      -83.1815   25.0626  -72.2733 H         1 UNK         0.1144 
    124 H124      -84.3428   22.9071  -72.1347 H         1 UNK         0.0793 
    125 H125      -83.1900   23.0287  -70.8151 H         1 UNK         0.0793 
    126 H126      -82.8338   22.0179  -72.2156 H         1 UNK         0.0793 
    127 H127      -81.0355   25.3435  -71.8570 H         1 UNK         0.2896 
@<TRIPOS>BOND
     1    1    2 1    
     2    1   67 1    
     3    1   68 1    
     4    1   69 1    
     5    2    3 2    
     6    2    4 am   BACKBONE|DICT|INTERRES
     7    4    5 1    
     8    4   70 1    
     9    5    6 1    
    10    5   65 1    
    11    5   71 1    
    12    6    7 1    
    13    6   72 1    
    14    6   73 1    
    15    7    8 1    
    16    8    9 1    
    17    8   74 1    
    18    8   75 1    
    19    9   10 ar   
    20    9   14 ar   
    21   10   11 ar   
    22   10   76 1    
    23   11   12 ar   
    24   11   48 1    
    25   12   13 ar   
    26   12   77 1    
    27   13   14 ar   
    28   13   15 1    
    29   14   78 1    
    30   15   16 1    
    31   15   79 1    
    32   15   80 1    
    33   16   17 1    
    34   17   18 1    
    35   17   81 1    
    36   17   82 1    
    37   18   19 1    
    38   18   22 1    
    39   18   83 1    
    40   19   20 am   BACKBONE|DICT|INTERRES
    41   19   21 2    
    42   20   84 1    
    43   20   85 1    
    44   22   23 am   BACKBONE|DICT|INTERRES
    45   22   86 1    
    46   23   24 2    
    47   23   25 1    
    48   25   26 1    
    49   25   27 1    
    50   25   87 1    
    51   26   88 1    
    52   26   89 1    
    53   26   90 1    
    54   27   28 am   BACKBONE|DICT|INTERRES
    55   27   91 1    
    56   28   29 2    
    57   28   30 1    
    58   30   31 1    
    59   30   32 1    
    60   30   92 1    
    61   31   93 1    
    62   31   94 1    
    63   31   95 1    
    64   32   33 am   BACKBONE|DICT|INTERRES
    65   32   96 1    
    66   33   34 2    
    67   33   35 1    
    68   35   36 1    
    69   35   37 1    
    70   35   97 1    
    71   36   98 1    
    72   36   99 1    
    73   36  100 1    
    74   37   38 am   BACKBONE|DICT|INTERRES
    75   37  101 1    
    76   38   39 2    
    77   38   40 1    
    78   40   41 1    
    79   40   42 1    
    80   40  102 1    
    81   41  103 1    
    82   41  104 1    
    83   41  105 1    
    84   42   43 am   BACKBONE|DICT|INTERRES
    85   42  106 1    
    86   43   44 2    
    87   43   45 1    
    88   45   46 1    
    89   45   49 1    
    90   45  107 1    
    91   46   47 1    
    92   46  108 1    
    93   46  109 1    
    94   47   48 1    
    95   48  110 1    
    96   48  111 1    
    97   49   50 am   BACKBONE|DICT|INTERRES
    98   49  112 1    
    99   50   51 2    
   100   50   52 1    
   101   52   53 1    
   102   52   54 1    
   103   52  113 1    
   104   53  114 1    
   105   53  115 1    
   106   53  116 1    
   107   54   55 am   BACKBONE|DICT|INTERRES
   108   54  117 1    
   109   55   56 2    
   110   55   57 1    
   111   57   58 1    
   112   57   59 1    
   113   57  118 1    
   114   58  119 1    
   115   58  120 1    
   116   58  121 1    
   117   59   60 am   BACKBONE|DICT|INTERRES
   118   59  122 1    
   119   60   61 2    
   120   60   62 1    
   121   62   63 1    
   122   62   64 1    
   123   62  123 1    
   124   63  124 1    
   125   63  125 1    
   126   63  126 1    
   127   64   65 am   BACKBONE|DICT|INTERRES
   128   64  127 1    
   129   65   66 2    
@<TRIPOS>SUBSTRUCTURE
     1 UNK         1 GROUP             0       ****    0 ROOT    
