@<TRIPOS>MOLECULE
3R135
127   129    1
SMALL
USER_CHARGES


@<TRIPOS>ATOM
      1 CA        -82.0709   25.4955  -70.8447 C.3       0 UNK        -0.1998 
      2 C         -81.9741   26.1453  -72.2159 C.2       0 UNK         0.4909 
      3 O         -81.0217   25.8787  -72.9462 O.2       0 UNK        -0.5240 
      4 N         -82.9728   26.9606  -72.5848 N.am      1 UNK        -0.4739 
      5 CA        -83.1052   27.7779  -73.8079 C.3       1 UNK         0.0864 
      6 C6        -82.1004   28.9788  -73.8438 C.3       11 UNK        -0.0881 
      7 S7        -80.7089   28.8881  -75.0282 S.3       11 UNK        -0.2682 
      8 C8        -79.5828   30.1872  -74.4121 C.3       11 UNK         0.0289 
      9 C9        -78.6527   29.7971  -73.2596 C.ar      11 UNK        -0.0687 
     10 C10       -78.6964   28.5503  -72.6207 C.ar      11 UNK        -0.0823 
     11 C11       -77.8249   28.2523  -71.5683 C.ar      11 UNK        -0.0830 
     12 C12       -76.8957   29.2077  -71.1521 C.ar      11 UNK        -0.1021 
     13 C13       -76.8318   30.4519  -71.7831 C.ar      11 UNK        -0.0753 
     14 C14       -77.7121   30.7391  -72.8301 C.ar      11 UNK        -0.0933 
     15 C15       -75.8205   31.4925  -71.3281 C.3       11 UNK         0.0166 
     16 S16       -74.3231   31.4669  -72.3591 S.3       11 UNK        -0.2615 
     17 C17       -73.5418   29.9096  -71.8127 C.3       11 UNK        -0.0865 
     18 CA        -72.1512   29.6948  -72.4654 C.3       10 UNK         0.0862 
     19 C         -71.3694   28.5087  -71.8272 C.2       10 UNK         0.5551 
     20 N         -70.6226   27.7160  -72.5879 N.am      10 UNK        -0.7319 
     21 O         -71.4232   28.3095  -70.6161 O.2       10 UNK        -0.5018 
     22 N         -72.2718   29.5658  -73.9241 N.am      10 UNK        -0.4509 
     23 C         -71.5677   30.2513  -74.8296 C.2       10 UNK         0.4899 
     24 O         -70.7574   31.1366  -74.5489 O.2       10 UNK        -0.4839 
     25 CA        -71.8026   29.8527  -76.2997 C.3       9 UNK         0.0222 
     26 CB        -70.7934   30.5025  -77.2698 C.3       9 UNK        -0.1966 
     27 N         -71.8429   28.3977  -76.4985 N.am      9 UNK        -0.4218 
     28 C         -70.8872   27.5058  -76.1862 C.2       9 UNK         0.5020 
     29 O         -69.8240   27.8120  -75.6444 O.2       9 UNK        -0.5274 
     30 CA        -71.1500   26.0151  -76.4840 C.3       8 UNK         0.0270 
     31 CB        -71.0841   25.1868  -75.1891 C.3       8 UNK        -0.1976 
     32 N         -72.4317   25.7540  -77.1402 N.am      8 UNK        -0.4313 
     33 C         -72.7185   26.0052  -78.4235 C.2       8 UNK         0.5041 
     34 O         -71.8999   26.4239  -79.2422 O.2       8 UNK        -0.5577 
     35 CA        -74.1838   25.8053  -78.8457 C.3       7 UNK         0.0284 
     36 CB        -74.4413   24.3461  -79.2551 C.3       7 UNK        -0.1958 
     37 N         -75.1321   26.1997  -77.7976 N.am      7 UNK        -0.4454 
     38 C         -75.3019   27.4521  -77.3472 C.2       7 UNK         0.5089 
     39 O         -74.6769   28.4241  -77.7702 O.2       7 UNK        -0.5125 
     40 CA        -76.3120   27.6376  -76.2048 C.3       6 UNK         0.0408 
     41 CB        -77.7478   27.5452  -76.7384 C.3       6 UNK        -0.1791 
     42 N         -76.1241   26.6427  -75.1499 N.am      6 UNK        -0.4762 
     43 C         -75.0740   26.6113  -74.3150 C.2       6 UNK         0.5007 
     44 O         -74.1761   27.4550  -74.3155 O.2       6 UNK        -0.5032 
     45 CA        -74.9662   25.4008  -73.3609 C.3       5 UNK         0.0783 
     46 C46       -75.5790   25.7024  -71.9676 C.3       11 UNK        -0.0857 
     47 S47       -77.3983   25.5280  -71.9179 S.3       11 UNK        -0.2512 
     48 C48       -77.9146   26.9108  -70.8575 C.3       11 UNK         0.0225 
     49 N         -75.5036   24.1635  -73.9417 N.am      5 UNK        -0.4615 
     50 C         -75.0991   23.5964  -75.0843 C.2       4 UNK         0.5053 
     51 O         -74.1280   23.9913  -75.7267 O.2       4 UNK        -0.5105 
     52 CA        -75.9323   22.4271  -75.6406 C.3       4 UNK         0.0263 
     53 CB        -75.2133   21.0942  -75.3801 C.3       4 UNK        -0.1981 
     54 N         -77.3121   22.3368  -75.1426 N.am      4 UNK        -0.4224 
     55 C         -78.2622   23.2774  -75.2581 C.2       3 UNK         0.4895 
     56 O         -78.0644   24.3950  -75.7411 O.2       3 UNK        -0.5091 
     57 CA        -79.6496   22.8883  -74.7185 C.3       3 UNK         0.0250 
     58 CB        -79.6337   22.7189  -73.1889 C.3       3 UNK        -0.1996 
     59 N         -80.6735   23.8772  -75.0607 N.am      3 UNK        -0.4254 
     60 C         -81.4142   23.8511  -76.1803 C.2       2 UNK         0.5004 
     61 O         -81.2611   23.0067  -77.0651 O.2       2 UNK        -0.5226 
     62 CA        -82.5402   24.8941  -76.3457 C.3       2 UNK         0.0269 
     63 CB        -83.8949   24.2119  -76.6284 C.3       2 UNK        -0.1926 
     64 N         -82.6592   25.7731  -75.1825 N.am      2 UNK        -0.4687 
     65 C         -83.2244   26.9825  -75.1372 C.2       1 UNK         0.5165 
     66 O         -83.8305   27.4826  -76.0867 O.2       1 UNK        -0.5079 
     67 H67       -82.0250   24.4111  -70.9412 H         1 UNK         0.0900 
     68 H68       -82.9989   25.7526  -70.3346 H         1 UNK         0.0900 
     69 H69       -81.2388   25.8162  -70.2193 H         1 UNK         0.0900 
     70 H70       -83.7427   27.0732  -71.9392 H         1 UNK         0.2959 
     71 H71       -84.0949   28.2234  -73.6909 H         1 UNK         0.1079 
     72 H72       -81.6983   29.1699  -72.8474 H         1 UNK         0.0837 
     73 H73       -82.6528   29.8843  -74.1000 H         1 UNK         0.0837 
     74 H74       -80.1725   31.0572  -74.1197 H         1 UNK         0.0685 
     75 H75       -78.9641   30.5045  -75.2528 H         1 UNK         0.0685 
     76 H76       -79.4044   27.7979  -72.9325 H         1 UNK         0.1434 
     77 H77       -76.2224   28.9856  -70.3355 H         1 UNK         0.1329 
     78 H78       -77.6608   31.7042  -73.3160 H         1 UNK         0.1335 
     79 H79       -76.2681   32.4860  -71.3835 H         1 UNK         0.0680 
     80 H80       -75.5502   31.3393  -70.2821 H         1 UNK         0.0680 
     81 H81       -73.4595   29.9413  -70.7248 H         1 UNK         0.1032 
     82 H82       -74.2015   29.0739  -72.0507 H         1 UNK         0.1032 
     83 H83       -71.5508   30.5748  -72.2291 H         1 UNK         0.0461 
     84 H84       -70.1138   26.9612  -72.1568 H         1 UNK         0.3453 
     85 H85       -70.5136   27.9000  -73.5765 H         1 UNK         0.3453 
     86 H86       -72.9094   28.8364  -74.2367 H         1 UNK         0.2984 
     87 H87       -72.7954   30.2225  -76.5595 H         1 UNK         0.0554 
     88 H88       -71.0039   30.2271  -78.3032 H         1 UNK         0.0847 
     89 H89       -69.7682   30.2058  -77.0457 H         1 UNK         0.0847 
     90 H90       -70.8378   31.5906  -77.2099 H         1 UNK         0.0847 
     91 H91       -72.6997   28.0497  -76.9123 H         1 UNK         0.3141 
     92 H92       -70.3526   25.6748  -77.1476 H         1 UNK         0.0743 
     93 H93       -70.1086   25.2804  -74.7103 H         1 UNK         0.0784 
     94 H94       -71.8339   25.5129  -74.4680 H         1 UNK         0.0784 
     95 H95       -71.2461   24.1267  -75.3855 H         1 UNK         0.0784 
     96 H96       -73.1519   25.3172  -76.5669 H         1 UNK         0.3213 
     97 H97       -74.3663   26.4415  -79.7146 H         1 UNK         0.0855 
     98 H98       -74.2725   23.6552  -78.4286 H         1 UNK         0.0814 
     99 H99       -73.7759   24.0484  -80.0667 H         1 UNK         0.0814 
    100 H100      -75.4631   24.2059  -79.6080 H         1 UNK         0.0814 
    101 H101      -75.6659   25.4622  -77.3604 H         1 UNK         0.3105 
    102 H102      -76.1698   28.6276  -75.7655 H         1 UNK         0.0547 
    103 H103      -77.9105   26.6463  -77.3343 H         1 UNK         0.0837 
    104 H104      -78.4618   27.5194  -75.9184 H         1 UNK         0.0837 
    105 H105      -77.9900   28.4043  -77.3647 H         1 UNK         0.0837 
    106 H106      -76.8096   25.8943  -75.1032 H         1 UNK         0.3020 
    107 H107      -73.8968   25.2355  -73.2151 H         1 UNK         0.1245 
    108 H108      -75.2853   26.6940  -71.6180 H         1 UNK         0.0781 
    109 H109      -75.1691   25.0038  -71.2369 H         1 UNK         0.0781 
    110 H110      -77.3220   26.9060  -69.9414 H         1 UNK         0.0836 
    111 H111      -78.9482   26.7451  -70.5521 H         1 UNK         0.0836 
    112 H112      -76.3266   23.7951  -73.4875 H         1 UNK         0.3022 
    113 H113      -75.9932   22.5736  -76.7209 H         1 UNK         0.0747 
    114 H114      -75.7224   20.2642  -75.8706 H         1 UNK         0.0793 
    115 H115      -74.1932   21.1177  -75.7669 H         1 UNK         0.0793 
    116 H116      -75.1520   20.8705  -74.3142 H         1 UNK         0.0793 
    117 H117      -77.5677   21.4562  -74.7187 H         1 UNK         0.3047 
    118 H118      -79.9159   21.9262  -75.1618 H         1 UNK         0.0822 
    119 H119      -78.8795   22.0010  -72.8654 H         1 UNK         0.0807 
    120 H120      -80.5956   22.3563  -72.8261 H         1 UNK         0.0807 
    121 H121      -79.4293   23.6608  -72.6820 H         1 UNK         0.0807 
    122 H122      -80.7547   24.6510  -74.4093 H         1 UNK         0.2946 
    123 H123      -82.2680   25.5060  -77.2084 H         1 UNK         0.1144 
    124 H124      -83.8357   23.5619  -77.5023 H         1 UNK         0.0793 
    125 H125      -84.6787   24.9421  -76.8294 H         1 UNK         0.0793 
    126 H126      -84.2161   23.5989  -75.7856 H         1 UNK         0.0793 
    127 H127      -82.1516   25.5027  -74.3466 H         1 UNK         0.2896 
@<TRIPOS>BOND
     1    1    2 1    
     2    1   67 1    
     3    1   68 1    
     4    1   69 1    
     5    2    3 2    
     6    2    4 am   BACKBONE|DICT|INTERRES
     7    4    5 1    
     8    4   70 1    
     9    5    6 1    
    10    5   65 1    
    11    5   71 1    
    12    6    7 1    
    13    6   72 1    
    14    6   73 1    
    15    7    8 1    
    16    8    9 1    
    17    8   74 1    
    18    8   75 1    
    19    9   10 ar   
    20    9   14 ar   
    21   10   11 ar   
    22   10   76 1    
    23   11   12 ar   
    24   11   48 1    
    25   12   13 ar   
    26   12   77 1    
    27   13   14 ar   
    28   13   15 1    
    29   14   78 1    
    30   15   16 1    
    31   15   79 1    
    32   15   80 1    
    33   16   17 1    
    34   17   18 1    
    35   17   81 1    
    36   17   82 1    
    37   18   19 1    
    38   18   22 1    
    39   18   83 1    
    40   19   20 am   BACKBONE|DICT|INTERRES
    41   19   21 2    
    42   20   84 1    
    43   20   85 1    
    44   22   23 am   BACKBONE|DICT|INTERRES
    45   22   86 1    
    46   23   24 2    
    47   23   25 1    
    48   25   26 1    
    49   25   27 1    
    50   25   87 1    
    51   26   88 1    
    52   26   89 1    
    53   26   90 1    
    54   27   28 am   BACKBONE|DICT|INTERRES
    55   27   91 1    
    56   28   29 2    
    57   28   30 1    
    58   30   31 1    
    59   30   32 1    
    60   30   92 1    
    61   31   93 1    
    62   31   94 1    
    63   31   95 1    
    64   32   33 am   BACKBONE|DICT|INTERRES
    65   32   96 1    
    66   33   34 2    
    67   33   35 1    
    68   35   36 1    
    69   35   37 1    
    70   35   97 1    
    71   36   98 1    
    72   36   99 1    
    73   36  100 1    
    74   37   38 am   BACKBONE|DICT|INTERRES
    75   37  101 1    
    76   38   39 2    
    77   38   40 1    
    78   40   41 1    
    79   40   42 1    
    80   40  102 1    
    81   41  103 1    
    82   41  104 1    
    83   41  105 1    
    84   42   43 am   BACKBONE|DICT|INTERRES
    85   42  106 1    
    86   43   44 2    
    87   43   45 1    
    88   45   46 1    
    89   45   49 1    
    90   45  107 1    
    91   46   47 1    
    92   46  108 1    
    93   46  109 1    
    94   47   48 1    
    95   48  110 1    
    96   48  111 1    
    97   49   50 am   BACKBONE|DICT|INTERRES
    98   49  112 1    
    99   50   51 2    
   100   50   52 1    
   101   52   53 1    
   102   52   54 1    
   103   52  113 1    
   104   53  114 1    
   105   53  115 1    
   106   53  116 1    
   107   54   55 am   BACKBONE|DICT|INTERRES
   108   54  117 1    
   109   55   56 2    
   110   55   57 1    
   111   57   58 1    
   112   57   59 1    
   113   57  118 1    
   114   58  119 1    
   115   58  120 1    
   116   58  121 1    
   117   59   60 am   BACKBONE|DICT|INTERRES
   118   59  122 1    
   119   60   61 2    
   120   60   62 1    
   121   62   63 1    
   122   62   64 1    
   123   62  123 1    
   124   63  124 1    
   125   63  125 1    
   126   63  126 1    
   127   64   65 am   BACKBONE|DICT|INTERRES
   128   64  127 1    
   129   65   66 2    
@<TRIPOS>SUBSTRUCTURE
     1 UNK         1 GROUP             0       ****    0 ROOT    
