@<TRIPOS>MOLECULE
3R135
127   129    1
SMALL
USER_CHARGES


@<TRIPOS>ATOM
      1 CA        -84.6387   26.9325  -72.2669 C.3       0 UNK        -0.1998 
      2 C         -83.3162   27.3030  -71.6014 C.2       0 UNK         0.4909 
      3 O         -83.1927   27.1679  -70.3860 O.2       0 UNK        -0.5240 
      4 N         -82.3015   27.7775  -72.3377 N.am      1 UNK        -0.4739 
      5 CA        -82.2639   27.9605  -73.7953 C.3       1 UNK         0.0864 
      6 C6        -81.0877   28.8726  -74.2215 C.3       11 UNK        -0.0881 
      7 S7        -81.2568   30.5966  -73.6387 S.3       11 UNK        -0.2682 
      8 C8        -80.4548   30.5967  -71.9970 C.3       11 UNK         0.0289 
      9 C9        -79.0850   29.9305  -71.9910 C.ar      11 UNK        -0.0687 
     10 C10       -78.8599   28.7956  -71.2038 C.ar      11 UNK        -0.0823 
     11 C11       -77.6133   28.1622  -71.1999 C.ar      11 UNK        -0.0830 
     12 C12       -76.5847   28.6899  -71.9877 C.ar      11 UNK        -0.1021 
     13 C13       -76.7958   29.8195  -72.7815 C.ar      11 UNK        -0.0753 
     14 C14       -78.0457   30.4427  -72.7737 C.ar      11 UNK        -0.0933 
     15 C15       -75.6793   30.3328  -73.6738 C.3       11 UNK         0.0166 
     16 S16       -74.5069   31.3791  -72.7631 S.3       11 UNK        -0.2615 
     17 C17       -73.2666   31.8176  -74.0408 C.3       11 UNK        -0.0865 
     18 CA        -72.8554   30.6935  -75.0490 C.3       10 UNK         0.0862 
     19 C         -71.7765   31.1692  -76.0688 C.2       10 UNK         0.5551 
     20 N         -71.9883   32.3083  -76.7158 N.am      10 UNK        -0.7319 
     21 O         -70.7618   30.5169  -76.3076 O.2       10 UNK        -0.5018 
     22 N         -72.5231   29.4145  -74.3968 N.am      10 UNK        -0.4509 
     23 C         -71.5769   29.2163  -73.4705 C.2       10 UNK         0.4899 
     24 O         -70.8256   30.0939  -73.0429 O.2       10 UNK        -0.4839 
     25 CA        -71.4586   27.7979  -72.8982 C.3       9 UNK         0.0222 
     26 CB        -72.3847   27.6323  -71.6825 C.3       9 UNK        -0.1966 
     27 N         -71.7676   26.7611  -73.8872 N.am      9 UNK        -0.4218 
     28 C         -70.8352   26.1392  -74.6207 C.2       9 UNK         0.5020 
     29 O         -69.6400   26.4396  -74.6113 O.2       9 UNK        -0.5274 
     30 CA        -71.2910   24.9388  -75.4624 C.3       8 UNK         0.0270 
     31 CB        -71.5735   23.7276  -74.5576 C.3       8 UNK        -0.1976 
     32 N         -72.4527   25.2109  -76.3115 N.am      8 UNK        -0.4313 
     33 C         -72.3948   25.9181  -77.4491 C.2       8 UNK         0.5041 
     34 O         -71.3825   26.4981  -77.8440 O.2       8 UNK        -0.5577 
     35 CA        -73.6591   25.9474  -78.3247 C.3       7 UNK         0.0284 
     36 CB        -73.8404   24.6096  -79.0609 C.3       7 UNK        -0.1958 
     37 N         -74.8710   26.2589  -77.5699 N.am      7 UNK        -0.4454 
     38 C         -75.1625   27.4696  -77.0761 C.2       7 UNK         0.5089 
     39 O         -74.4648   28.4691  -77.2447 O.2       7 UNK        -0.5125 
     40 CA        -76.4350   27.5769  -76.2185 C.3       6 UNK         0.0408 
     41 CB        -77.6869   27.7013  -77.0994 C.3       6 UNK        -0.1791 
     42 N         -76.5933   26.4606  -75.2846 N.am      6 UNK        -0.4762 
     43 C         -75.7003   26.0913  -74.3525 C.2       6 UNK         0.5007 
     44 O         -74.6308   26.6702  -74.1481 O.2       6 UNK        -0.5032 
     45 CA        -76.0298   24.8074  -73.5681 C.3       5 UNK         0.0783 
     46 C46       -77.0244   25.0630  -72.4079 C.3       11 UNK        -0.0857 
     47 S47       -76.1852   25.7241  -70.9301 S.3       11 UNK        -0.2512 
     48 C48       -77.4018   26.9377  -70.3087 C.3       11 UNK         0.0225 
     49 N         -76.4972   23.7462  -74.4646 N.am      5 UNK        -0.4615 
     50 C         -75.7317   23.1382  -75.3814 C.2       4 UNK         0.5053 
     51 O         -74.5439   23.3984  -75.5627 O.2       4 UNK        -0.5105 
     52 CA        -76.4172   22.0944  -76.2763 C.3       4 UNK         0.0263 
     53 CB        -76.5667   20.7557  -75.5363 C.3       4 UNK        -0.1981 
     54 N         -77.7243   22.5440  -76.7573 N.am      4 UNK        -0.4224 
     55 C         -77.9067   23.5889  -77.5770 C.2       3 UNK         0.4895 
     56 O         -76.9895   24.2572  -78.0534 O.2       3 UNK        -0.5091 
     57 CA        -79.3614   23.9797  -77.8843 C.3       3 UNK         0.0250 
     58 CB        -79.9015   23.1588  -79.0661 C.3       3 UNK        -0.1996 
     59 N         -80.2717   23.8539  -76.7392 N.am      3 UNK        -0.4254 
     60 C         -80.1302   24.4997  -75.5732 C.2       2 UNK         0.5004 
     61 O         -79.1582   25.2023  -75.2850 O.2       2 UNK        -0.5226 
     62 CA        -81.2490   24.3152  -74.5363 C.3       2 UNK         0.0269 
     63 CB        -80.8134   23.3203  -73.4485 C.3       2 UNK        -0.1926 
     64 N         -81.5821   25.5962  -73.9115 N.am      2 UNK        -0.4687 
     65 C         -82.1674   26.6196  -74.5511 C.2       1 UNK         0.5165 
     66 O         -82.6230   26.5380  -75.6925 O.2       1 UNK        -0.5079 
     67 H67       -85.3922   26.7067  -71.5126 H         1 UNK         0.0900 
     68 H68       -84.5252   26.0489  -72.8938 H         1 UNK         0.0900 
     69 H69       -85.0213   27.7520  -72.8738 H         1 UNK         0.0900 
     70 H70       -81.4501   28.0303  -71.8611 H         1 UNK         0.2959 
     71 H71       -83.1903   28.4425  -74.1133 H         1 UNK         0.1079 
     72 H72       -80.1308   28.4506  -73.9103 H         1 UNK         0.0837 
     73 H73       -81.0335   28.9283  -75.3110 H         1 UNK         0.0837 
     74 H74       -80.3444   31.6299  -71.6651 H         1 UNK         0.0685 
     75 H75       -81.1231   30.1220  -71.2776 H         1 UNK         0.0685 
     76 H76       -79.6556   28.4051  -70.5843 H         1 UNK         0.1434 
     77 H77       -75.6133   28.2203  -71.9951 H         1 UNK         0.1329 
     78 H78       -78.2178   31.3153  -73.3889 H         1 UNK         0.1335 
     79 H79       -75.1482   29.4731  -74.0768 H         1 UNK         0.0680 
     80 H80       -76.0845   30.8851  -74.5230 H         1 UNK         0.0680 
     81 H81       -72.3836   32.1941  -73.5217 H         1 UNK         0.1032 
     82 H82       -73.6693   32.6744  -74.5823 H         1 UNK         0.1032 
     83 H83       -73.7254   30.4726  -75.6658 H         1 UNK         0.0461 
     84 H84       -71.3021   32.6213  -77.3848 H         1 UNK         0.3453 
     85 H85       -72.8235   32.8522  -76.5684 H         1 UNK         0.3453 
     86 H86       -73.0628   28.6175  -74.7036 H         1 UNK         0.2984 
     87 H87       -70.4337   27.6725  -72.5422 H         1 UNK         0.0554 
     88 H88       -72.2616   26.6536  -71.2188 H         1 UNK         0.0847 
     89 H89       -73.4322   27.7415  -71.9577 H         1 UNK         0.0847 
     90 H90       -72.1689   28.3830  -70.9211 H         1 UNK         0.0847 
     91 H91       -72.7463   26.5012  -73.9894 H         1 UNK         0.3141 
     92 H92       -70.4592   24.6664  -76.1161 H         1 UNK         0.0743 
     93 H93       -72.4153   23.9085  -73.8880 H         1 UNK         0.0784 
     94 H94       -71.8005   22.8383  -75.1461 H         1 UNK         0.0784 
     95 H95       -70.7078   23.4922  -73.9370 H         1 UNK         0.0784 
     96 H96       -73.3138   24.7227  -76.0726 H         1 UNK         0.3213 
     97 H97       -73.5215   26.7271  -79.0773 H         1 UNK         0.0855 
     98 H98       -72.9498   24.3563  -79.6376 H         1 UNK         0.0814 
     99 H99       -74.6771   24.6529  -79.7585 H         1 UNK         0.0814 
    100 H100      -74.0277   23.7877  -78.3687 H         1 UNK         0.0814 
    101 H101      -75.5385   25.5046  -77.4375 H         1 UNK         0.3105 
    102 H102      -76.3668   28.4877  -75.6283 H         1 UNK         0.0547 
    103 H103      -77.6185   28.5733  -77.7508 H         1 UNK         0.0837 
    104 H104      -77.8198   26.8287  -77.7376 H         1 UNK         0.0837 
    105 H105      -78.5877   27.8159  -76.4958 H         1 UNK         0.0837 
    106 H106      -77.4605   25.9301  -75.3555 H         1 UNK         0.3020 
    107 H107      -75.0899   24.4511  -73.1389 H         1 UNK         0.1245 
    108 H108      -77.4944   24.1270  -72.1025 H         1 UNK         0.0781 
    109 H109      -77.8411   25.7187  -72.7178 H         1 UNK         0.0781 
    110 H110      -77.0704   27.2838  -69.3290 H         1 UNK         0.0836 
    111 H111      -78.3484   26.4193  -70.1471 H         1 UNK         0.0836 
    112 H112      -77.4823   23.5303  -74.4335 H         1 UNK         0.3022 
    113 H113      -75.7768   21.9336  -77.1464 H         1 UNK         0.0747 
    114 H114      -76.9739   19.9846  -76.1906 H         1 UNK         0.0793 
    115 H115      -75.5993   20.3980  -75.1806 H         1 UNK         0.0793 
    116 H116      -77.2219   20.8403  -74.6683 H         1 UNK         0.0793 
    117 H117      -78.5373   22.0507  -76.4186 H         1 UNK         0.3047 
    118 H118      -79.3585   25.0309  -78.1784 H         1 UNK         0.0822 
    119 H119      -80.8909   23.5020  -79.3691 H         1 UNK         0.0807 
    120 H120      -79.9725   22.0975  -78.8247 H         1 UNK         0.0807 
    121 H121      -79.2493   23.2522  -79.9360 H         1 UNK         0.0807 
    122 H122      -81.0965   23.2891  -76.8845 H         1 UNK         0.2946 
    123 H123      -82.1428   23.9301  -75.0326 H         1 UNK         0.1144 
    124 H124      -80.5720   22.3481  -73.8803 H         1 UNK         0.0793 
    125 H125      -81.6068   23.1603  -72.7180 H         1 UNK         0.0793 
    126 H126      -79.9300   23.6683  -72.9119 H         1 UNK         0.0793 
    127 H127      -81.2233   25.7568  -72.9819 H         1 UNK         0.2896 
@<TRIPOS>BOND
     1    1    2 1    
     2    1   67 1    
     3    1   68 1    
     4    1   69 1    
     5    2    3 2    
     6    2    4 am   BACKBONE|DICT|INTERRES
     7    4    5 1    
     8    4   70 1    
     9    5    6 1    
    10    5   65 1    
    11    5   71 1    
    12    6    7 1    
    13    6   72 1    
    14    6   73 1    
    15    7    8 1    
    16    8    9 1    
    17    8   74 1    
    18    8   75 1    
    19    9   10 ar   
    20    9   14 ar   
    21   10   11 ar   
    22   10   76 1    
    23   11   12 ar   
    24   11   48 1    
    25   12   13 ar   
    26   12   77 1    
    27   13   14 ar   
    28   13   15 1    
    29   14   78 1    
    30   15   16 1    
    31   15   79 1    
    32   15   80 1    
    33   16   17 1    
    34   17   18 1    
    35   17   81 1    
    36   17   82 1    
    37   18   19 1    
    38   18   22 1    
    39   18   83 1    
    40   19   20 am   BACKBONE|DICT|INTERRES
    41   19   21 2    
    42   20   84 1    
    43   20   85 1    
    44   22   23 am   BACKBONE|DICT|INTERRES
    45   22   86 1    
    46   23   24 2    
    47   23   25 1    
    48   25   26 1    
    49   25   27 1    
    50   25   87 1    
    51   26   88 1    
    52   26   89 1    
    53   26   90 1    
    54   27   28 am   BACKBONE|DICT|INTERRES
    55   27   91 1    
    56   28   29 2    
    57   28   30 1    
    58   30   31 1    
    59   30   32 1    
    60   30   92 1    
    61   31   93 1    
    62   31   94 1    
    63   31   95 1    
    64   32   33 am   BACKBONE|DICT|INTERRES
    65   32   96 1    
    66   33   34 2    
    67   33   35 1    
    68   35   36 1    
    69   35   37 1    
    70   35   97 1    
    71   36   98 1    
    72   36   99 1    
    73   36  100 1    
    74   37   38 am   BACKBONE|DICT|INTERRES
    75   37  101 1    
    76   38   39 2    
    77   38   40 1    
    78   40   41 1    
    79   40   42 1    
    80   40  102 1    
    81   41  103 1    
    82   41  104 1    
    83   41  105 1    
    84   42   43 am   BACKBONE|DICT|INTERRES
    85   42  106 1    
    86   43   44 2    
    87   43   45 1    
    88   45   46 1    
    89   45   49 1    
    90   45  107 1    
    91   46   47 1    
    92   46  108 1    
    93   46  109 1    
    94   47   48 1    
    95   48  110 1    
    96   48  111 1    
    97   49   50 am   BACKBONE|DICT|INTERRES
    98   49  112 1    
    99   50   51 2    
   100   50   52 1    
   101   52   53 1    
   102   52   54 1    
   103   52  113 1    
   104   53  114 1    
   105   53  115 1    
   106   53  116 1    
   107   54   55 am   BACKBONE|DICT|INTERRES
   108   54  117 1    
   109   55   56 2    
   110   55   57 1    
   111   57   58 1    
   112   57   59 1    
   113   57  118 1    
   114   58  119 1    
   115   58  120 1    
   116   58  121 1    
   117   59   60 am   BACKBONE|DICT|INTERRES
   118   59  122 1    
   119   60   61 2    
   120   60   62 1    
   121   62   63 1    
   122   62   64 1    
   123   62  123 1    
   124   63  124 1    
   125   63  125 1    
   126   63  126 1    
   127   64   65 am   BACKBONE|DICT|INTERRES
   128   64  127 1    
   129   65   66 2    
@<TRIPOS>SUBSTRUCTURE
     1 UNK         1 GROUP             0       ****    0 ROOT    
