@<TRIPOS>MOLECULE
3R135
127   129    1
SMALL
USER_CHARGES


@<TRIPOS>ATOM
      1 CA        -84.6825   31.0640  -76.0702 C.3       0 UNK        -0.1998 
      2 C         -83.3406   30.3484  -76.0228 C.2       0 UNK         0.4909 
      3 O         -82.5487   30.4742  -76.9570 O.2       0 UNK        -0.5240 
      4 N         -83.0792   29.6071  -74.9377 N.am      1 UNK        -0.4739 
      5 CA        -81.8668   28.8072  -74.7317 C.3       1 UNK         0.0864 
      6 C6        -81.7474   28.3737  -73.2467 C.3       11 UNK        -0.0881 
      7 S7        -80.2647   27.3774  -72.8877 S.3       11 UNK        -0.2682 
      8 C8        -79.3278   28.4634  -71.7702 C.3       11 UNK         0.0289 
      9 C9        -77.9775   27.8533  -71.4214 C.ar      11 UNK        -0.0687 
     10 C10       -77.9126   26.6089  -70.7898 C.ar      11 UNK        -0.0823 
     11 C11       -76.6793   26.0209  -70.5030 C.ar      11 UNK        -0.0830 
     12 C12       -75.5010   26.7067  -70.8085 C.ar      11 UNK        -0.1021 
     13 C13       -75.5459   27.9596  -71.4277 C.ar      11 UNK        -0.0753 
     14 C14       -76.7920   28.5205  -71.7423 C.ar      11 UNK        -0.0933 
     15 C15       -74.2353   28.6403  -71.8163 C.3       11 UNK         0.0166 
     16 S16       -74.2988   30.4631  -71.7715 S.3       11 UNK        -0.2615 
     17 C17       -72.9158   30.8519  -72.8918 C.3       11 UNK        -0.0865 
     18 CA        -73.3471   30.8621  -74.3915 C.3       10 UNK         0.0862 
     19 C         -73.8916   32.2388  -74.8845 C.2       10 UNK         0.5551 
     20 N         -73.7146   32.5962  -76.1511 N.am      10 UNK        -0.7319 
     21 O         -74.5020   32.9859  -74.1242 O.2       10 UNK        -0.5018 
     22 N         -72.3268   30.2524  -75.2607 N.am      10 UNK        -0.4509 
     23 C         -71.0708   30.6984  -75.4121 C.2       10 UNK         0.4899 
     24 O         -70.6393   31.7172  -74.8693 O.2       10 UNK        -0.4839 
     25 CA        -70.1393   29.8582  -76.3108 C.3       9 UNK         0.0222 
     26 CB        -68.6488   30.2112  -76.1206 C.3       9 UNK        -0.1966 
     27 N         -70.3409   28.4103  -76.1730 N.am      9 UNK        -0.4218 
     28 C         -70.2720   27.6644  -75.0599 C.2       9 UNK         0.5020 
     29 O         -70.0083   28.1163  -73.9439 O.2       9 UNK        -0.5274 
     30 CA        -70.5624   26.1577  -75.2338 C.3       8 UNK         0.0270 
     31 CB        -70.5602   25.3948  -73.8955 C.3       8 UNK        -0.1976 
     32 N         -71.8347   25.9122  -75.9232 N.am      8 UNK        -0.4313 
     33 C         -72.0372   26.0451  -77.2437 C.2       8 UNK         0.5041 
     34 O         -71.1467   26.3800  -78.0267 O.2       8 UNK        -0.5577 
     35 CA        -73.4550   25.8099  -77.7957 C.3       7 UNK         0.0284 
     36 CB        -73.5327   24.4492  -78.5054 C.3       7 UNK        -0.1958 
     37 N         -74.5078   25.8905  -76.7815 N.am      7 UNK        -0.4454 
     38 C         -74.8554   27.0078  -76.1237 C.2       7 UNK         0.5089 
     39 O         -74.3416   28.1086  -76.3303 O.2       7 UNK        -0.5125 
     40 CA        -75.9235   26.8685  -75.0223 C.3       6 UNK         0.0408 
     41 CB        -77.2968   27.2977  -75.5558 C.3       6 UNK        -0.1791 
     42 N         -76.0112   25.5180  -74.4504 N.am      6 UNK        -0.4762 
     43 C         -75.0063   24.9004  -73.8044 C.2       6 UNK         0.5007 
     44 O         -73.9230   25.4414  -73.5801 O.2       6 UNK        -0.5032 
     45 CA        -75.1741   23.4112  -73.4271 C.3       5 UNK         0.0783 
     46 C46       -75.2431   23.1708  -71.8955 C.3       11 UNK        -0.0857 
     47 S47       -76.9049   23.3500  -71.1542 S.3       11 UNK        -0.2512 
     48 C48       -76.6337   24.6324  -69.8897 C.3       11 UNK         0.0225 
     49 N         -76.2473   22.7280  -74.1561 N.am      5 UNK        -0.4615 
     50 C         -76.2658   22.5126  -75.4777 C.2       4 UNK         0.5053 
     51 O         -75.3534   22.8473  -76.2328 O.2       4 UNK        -0.5105 
     52 CA        -77.5251   21.8498  -76.0630 C.3       4 UNK         0.0263 
     53 CB        -77.3231   20.3308  -76.1809 C.3       4 UNK        -0.1981 
     54 N         -78.7582   22.1204  -75.3123 N.am      4 UNK        -0.4224 
     55 C         -79.2855   23.3373  -75.1170 C.2       3 UNK         0.4895 
     56 O         -78.7462   24.3839  -75.4799 O.2       3 UNK        -0.5091 
     57 CA        -80.6146   23.3917  -74.3468 C.3       3 UNK         0.0250 
     58 CB        -80.3541   23.6336  -72.8509 C.3       3 UNK        -0.1996 
     59 N         -81.4982   24.4384  -74.8697 N.am      3 UNK        -0.4254 
     60 C         -82.1182   24.3782  -76.0587 C.2       2 UNK         0.5004 
     61 O         -82.0372   23.4076  -76.8138 O.2       2 UNK        -0.5226 
     62 CA        -83.0066   25.5666  -76.4817 C.3       2 UNK         0.0269 
     63 CB        -84.4891   25.1555  -76.4895 C.3       2 UNK        -0.1926 
     64 N         -82.8584   26.7628  -75.6477 N.am      2 UNK        -0.4687 
     65 C         -81.8239   27.6127  -75.7111 C.2       1 UNK         0.5165 
     66 O         -80.8857   27.4917  -76.4996 O.2       1 UNK        -0.5079 
     67 H67       -84.5312   32.1399  -76.1532 H         1 UNK         0.0900 
     68 H68       -85.2790   30.8736  -75.1781 H         1 UNK         0.0900 
     69 H69       -85.2537   30.7322  -76.9368 H         1 UNK         0.0900 
     70 H70       -83.7718   29.5544  -74.2041 H         1 UNK         0.2959 
     71 H71       -81.0074   29.4409  -74.9636 H         1 UNK         0.1079 
     72 H72       -81.7466   29.2574  -72.6064 H         1 UNK         0.0837 
     73 H73       -82.6196   27.7921  -72.9430 H         1 UNK         0.0837 
     74 H74       -79.8989   28.6245  -70.8549 H         1 UNK         0.0685 
     75 H75       -79.2025   29.4391  -72.2423 H         1 UNK         0.0685 
     76 H76       -78.8265   26.0795  -70.5565 H         1 UNK         0.1434 
     77 H77       -74.5445   26.2489  -70.5960 H         1 UNK         0.1329 
     78 H78       -76.8431   29.4724  -72.2514 H         1 UNK         0.1335 
     79 H79       -73.4296   28.3131  -71.1571 H         1 UNK         0.0680 
     80 H80       -73.9630   28.3082  -72.8186 H         1 UNK         0.0680 
     81 H81       -72.4740   31.8074  -72.6027 H         1 UNK         0.1032 
     82 H82       -72.1324   30.1116  -72.7179 H         1 UNK         0.1032 
     83 H83       -74.1993   30.1900  -74.4966 H         1 UNK         0.0461 
     84 H84       -74.0729   33.4823  -76.4706 H         1 UNK         0.3453 
     85 H85       -73.2270   31.9870  -76.7880 H         1 UNK         0.3453 
     86 H86       -72.6277   29.4257  -75.7630 H         1 UNK         0.2984 
     87 H87       -70.4082   30.1054  -77.3386 H         1 UNK         0.0554 
     88 H88       -68.0137   29.6263  -76.7858 H         1 UNK         0.0847 
     89 H89       -68.3192   30.0300  -75.0969 H         1 UNK         0.0847 
     90 H90       -68.4625   31.2631  -76.3411 H         1 UNK         0.0847 
     91 H91       -70.5732   27.9083  -77.0280 H         1 UNK         0.3141 
     92 H92       -69.7551   25.7477  -75.8445 H         1 UNK         0.0743 
     93 H93       -69.5904   25.4746  -73.4028 H         1 UNK         0.0784 
     94 H94       -71.3076   25.7884  -73.2057 H         1 UNK         0.0784 
     95 H95       -70.7628   24.3336  -74.0405 H         1 UNK         0.0784 
     96 H96       -72.6270   25.6947  -75.3291 H         1 UNK         0.3213 
     97 H97       -73.6476   26.5912  -78.5341 H         1 UNK         0.0855 
     98 H98       -73.3132   23.6262  -77.8242 H         1 UNK         0.0814 
     99 H99       -72.8121   24.3944  -79.3227 H         1 UNK         0.0814 
    100 H100      -74.5206   24.2770  -78.9328 H         1 UNK         0.0814 
    101 H101      -74.9665   25.0208  -76.5345 H         1 UNK         0.3105 
    102 H102      -75.6507   27.5511  -74.2192 H         1 UNK         0.0547 
    103 H103      -77.6221   26.6735  -76.3887 H         1 UNK         0.0837 
    104 H104      -78.0581   27.2384  -74.7796 H         1 UNK         0.0837 
    105 H105      -77.2748   28.3291  -75.9096 H         1 UNK         0.0837 
    106 H106      -76.8724   25.0101  -74.6238 H         1 UNK         0.3020 
    107 H107      -74.2437   22.9474  -73.7641 H         1 UNK         0.1245 
    108 H108      -74.5233   23.8012  -71.3701 H         1 UNK         0.0781 
    109 H109      -74.9232   22.1484  -71.6891 H         1 UNK         0.0781 
    110 H110      -75.6889   24.4597  -69.3721 H         1 UNK         0.0836 
    111 H111      -77.4130   24.5465  -69.1310 H         1 UNK         0.0836 
    112 H112      -77.0437   22.4466  -73.6030 H         1 UNK         0.3022 
    113 H113      -77.6613   22.2548  -77.0681 H         1 UNK         0.0747 
    114 H114      -78.1617   19.8561  -76.6908 H         1 UNK         0.0793 
    115 H115      -76.4253   20.1001  -76.7566 H         1 UNK         0.0793 
    116 H116      -77.2126   19.8604  -75.2030 H         1 UNK         0.0793 
    117 H117      -79.2577   21.3141  -74.9646 H         1 UNK         0.3047 
    118 H118      -81.1297   22.4349  -74.4568 H         1 UNK         0.0822 
    119 H119      -79.8215   22.7910  -72.4086 H         1 UNK         0.0807 
    120 H120      -81.2836   23.7558  -72.2948 H         1 UNK         0.0807 
    121 H121      -79.7414   24.5200  -72.6846 H         1 UNK         0.0807 
    122 H122      -81.5663   25.2898  -74.3316 H         1 UNK         0.2946 
    123 H123      -82.7199   25.8239  -77.5042 H         1 UNK         0.1144 
    124 H124      -84.6533   24.2924  -77.1365 H         1 UNK         0.0793 
    125 H125      -85.1227   25.9604  -76.8625 H         1 UNK         0.0793 
    126 H126      -84.8384   24.8855  -75.4922 H         1 UNK         0.0793 
    127 H127      -83.5959   26.9463  -74.9827 H         1 UNK         0.2896 
@<TRIPOS>BOND
     1    1    2 1    
     2    1   67 1    
     3    1   68 1    
     4    1   69 1    
     5    2    3 2    
     6    2    4 am   BACKBONE|DICT|INTERRES
     7    4    5 1    
     8    4   70 1    
     9    5    6 1    
    10    5   65 1    
    11    5   71 1    
    12    6    7 1    
    13    6   72 1    
    14    6   73 1    
    15    7    8 1    
    16    8    9 1    
    17    8   74 1    
    18    8   75 1    
    19    9   10 ar   
    20    9   14 ar   
    21   10   11 ar   
    22   10   76 1    
    23   11   12 ar   
    24   11   48 1    
    25   12   13 ar   
    26   12   77 1    
    27   13   14 ar   
    28   13   15 1    
    29   14   78 1    
    30   15   16 1    
    31   15   79 1    
    32   15   80 1    
    33   16   17 1    
    34   17   18 1    
    35   17   81 1    
    36   17   82 1    
    37   18   19 1    
    38   18   22 1    
    39   18   83 1    
    40   19   20 am   BACKBONE|DICT|INTERRES
    41   19   21 2    
    42   20   84 1    
    43   20   85 1    
    44   22   23 am   BACKBONE|DICT|INTERRES
    45   22   86 1    
    46   23   24 2    
    47   23   25 1    
    48   25   26 1    
    49   25   27 1    
    50   25   87 1    
    51   26   88 1    
    52   26   89 1    
    53   26   90 1    
    54   27   28 am   BACKBONE|DICT|INTERRES
    55   27   91 1    
    56   28   29 2    
    57   28   30 1    
    58   30   31 1    
    59   30   32 1    
    60   30   92 1    
    61   31   93 1    
    62   31   94 1    
    63   31   95 1    
    64   32   33 am   BACKBONE|DICT|INTERRES
    65   32   96 1    
    66   33   34 2    
    67   33   35 1    
    68   35   36 1    
    69   35   37 1    
    70   35   97 1    
    71   36   98 1    
    72   36   99 1    
    73   36  100 1    
    74   37   38 am   BACKBONE|DICT|INTERRES
    75   37  101 1    
    76   38   39 2    
    77   38   40 1    
    78   40   41 1    
    79   40   42 1    
    80   40  102 1    
    81   41  103 1    
    82   41  104 1    
    83   41  105 1    
    84   42   43 am   BACKBONE|DICT|INTERRES
    85   42  106 1    
    86   43   44 2    
    87   43   45 1    
    88   45   46 1    
    89   45   49 1    
    90   45  107 1    
    91   46   47 1    
    92   46  108 1    
    93   46  109 1    
    94   47   48 1    
    95   48  110 1    
    96   48  111 1    
    97   49   50 am   BACKBONE|DICT|INTERRES
    98   49  112 1    
    99   50   51 2    
   100   50   52 1    
   101   52   53 1    
   102   52   54 1    
   103   52  113 1    
   104   53  114 1    
   105   53  115 1    
   106   53  116 1    
   107   54   55 am   BACKBONE|DICT|INTERRES
   108   54  117 1    
   109   55   56 2    
   110   55   57 1    
   111   57   58 1    
   112   57   59 1    
   113   57  118 1    
   114   58  119 1    
   115   58  120 1    
   116   58  121 1    
   117   59   60 am   BACKBONE|DICT|INTERRES
   118   59  122 1    
   119   60   61 2    
   120   60   62 1    
   121   62   63 1    
   122   62   64 1    
   123   62  123 1    
   124   63  124 1    
   125   63  125 1    
   126   63  126 1    
   127   64   65 am   BACKBONE|DICT|INTERRES
   128   64  127 1    
   129   65   66 2    
@<TRIPOS>SUBSTRUCTURE
     1 UNK         1 GROUP             0       ****    0 ROOT    
