@<TRIPOS>MOLECULE
3R135
127   129    1
SMALL
USER_CHARGES


@<TRIPOS>ATOM
      1 CA        -79.1338   23.1969  -70.2738 C.3       0 UNK        -0.1998 
      2 C         -79.7279   24.1236  -71.3224 C.2       0 UNK         0.4909 
      3 O         -79.0667   24.4131  -72.3192 O.2       0 UNK        -0.5240 
      4 N         -80.9673   24.5875  -71.1054 N.am      1 UNK        -0.4739 
      5 CA        -81.7246   25.4929  -71.9846 C.3       1 UNK         0.0864 
      6 C6        -81.1264   26.9296  -72.0414 C.3       11 UNK        -0.0881 
      7 S7        -80.8681   27.7247  -70.4202 S.3       11 UNK        -0.2682 
      8 C8        -79.0539   27.9674  -70.4210 C.3       11 UNK         0.0289 
      9 C9        -78.5054   29.0618  -71.3475 C.ar      11 UNK        -0.0687 
     10 C10       -79.2511   29.6431  -72.3839 C.ar      11 UNK        -0.0823 
     11 C11       -78.6859   30.6017  -73.2303 C.ar      11 UNK        -0.0830 
     12 C12       -77.3750   31.0254  -73.0075 C.ar      11 UNK        -0.1021 
     13 C13       -76.6188   30.4670  -71.9750 C.ar      11 UNK        -0.0753 
     14 C14       -77.1838   29.4809  -71.1601 C.ar      11 UNK        -0.0933 
     15 C15       -75.1885   30.9242  -71.7475 C.3       11 UNK         0.0166 
     16 S16       -74.0962   30.3024  -73.0586 S.3       11 UNK        -0.2615 
     17 C17       -72.4561   30.5376  -72.2848 C.3       11 UNK        -0.0865 
     18 CA        -71.8409   29.2163  -71.7496 C.3       10 UNK         0.0862 
     19 C         -72.4541   28.7869  -70.3836 C.2       10 UNK         0.5551 
     20 N         -73.0548   27.6093  -70.2616 N.am      10 UNK        -0.7319 
     21 O         -72.3727   29.5366  -69.4139 O.2       10 UNK        -0.5018 
     22 N         -71.8558   28.1846  -72.7943 N.am      10 UNK        -0.4509 
     23 C         -71.0573   27.1160  -72.8717 C.2       10 UNK         0.4899 
     24 O         -70.1705   26.8572  -72.0582 O.2       10 UNK        -0.4839 
     25 CA        -71.2930   26.1714  -74.0631 C.3       9 UNK         0.0222 
     26 CB        -72.0681   24.9220  -73.6149 C.3       9 UNK        -0.1966 
     27 N         -72.0148   26.8109  -75.1681 N.am      9 UNK        -0.4218 
     28 C         -71.4781   27.6779  -76.0389 C.2       9 UNK         0.5020 
     29 O         -70.3066   28.0592  -75.9949 O.2       9 UNK        -0.5274 
     30 CA        -72.4209   28.1747  -77.1533 C.3       8 UNK         0.0270 
     31 CB        -71.6987   28.9713  -78.2603 C.3       8 UNK        -0.1976 
     32 N         -73.2124   27.0755  -77.7192 N.am      8 UNK        -0.4313 
     33 C         -72.7550   25.9659  -78.3215 C.2       8 UNK         0.5041 
     34 O         -71.5728   25.7690  -78.6063 O.2       8 UNK        -0.5577 
     35 CA        -73.7808   24.8599  -78.6259 C.3       7 UNK         0.0284 
     36 CB        -73.6524   23.7291  -77.5915 C.3       7 UNK        -0.1958 
     37 N         -75.1670   25.3355  -78.6499 N.am      7 UNK        -0.4454 
     38 C         -75.6888   26.0813  -79.6338 C.2       7 UNK         0.5089 
     39 O         -75.0687   26.4141  -80.6443 O.2       7 UNK        -0.5125 
     40 CA        -77.1408   26.5510  -79.4547 C.3       6 UNK         0.0408 
     41 CB        -78.1189   25.4445  -79.8791 C.3       6 UNK        -0.1791 
     42 N         -77.4445   26.9777  -78.0864 N.am      6 UNK        -0.4762 
     43 C         -76.9166   28.0526  -77.4790 C.2       6 UNK         0.5007 
     44 O         -76.0909   28.7994  -78.0047 O.2       6 UNK        -0.5032 
     45 CA        -77.3554   28.3053  -76.0227 C.3       5 UNK         0.0783 
     46 C46       -78.8005   28.8698  -75.9398 C.3       11 UNK        -0.0857 
     47 S47       -78.8172   30.6939  -76.0198 S.3       11 UNK        -0.2512 
     48 C48       -79.4923   31.1714  -74.3908 C.3       11 UNK         0.0225 
     49 N         -77.1929   27.0975  -75.2157 N.am      5 UNK        -0.4615 
     50 C         -76.0192   26.5375  -74.8941 C.2       4 UNK         0.5053 
     51 O         -74.9176   26.9906  -75.2072 O.2       4 UNK        -0.5105 
     52 CA        -76.0874   25.2231  -74.1066 C.3       4 UNK         0.0263 
     53 CB        -76.0676   25.5141  -72.5975 C.3       4 UNK        -0.1981 
     54 N         -77.2615   24.4126  -74.4484 N.am      4 UNK        -0.4224 
     55 C         -77.4561   23.8412  -75.6464 C.2       3 UNK         0.4895 
     56 O         -76.6825   23.9648  -76.5963 O.2       3 UNK        -0.5091 
     57 CA        -78.7377   23.0142  -75.8307 C.3       3 UNK         0.0250 
     58 CB        -78.7198   21.7598  -74.9413 C.3       3 UNK        -0.1996 
     59 N         -79.9726   23.7644  -75.5939 N.am      3 UNK        -0.4254 
     60 C         -80.3529   24.8868  -76.2184 C.2       2 UNK         0.5004 
     61 O         -79.6534   25.5005  -77.0226 O.2       2 UNK        -0.5226 
     62 CA        -81.7422   25.4437  -75.8658 C.3       2 UNK         0.0269 
     63 CB        -82.8784   24.5510  -76.4043 C.3       2 UNK        -0.1926 
     64 N         -81.8800   25.7344  -74.4340 N.am      2 UNK        -0.4687 
     65 C         -81.9120   24.8811  -73.3978 C.2       1 UNK         0.5165 
     66 O         -82.0335   23.6596  -73.5265 O.2       1 UNK        -0.5079 
     67 H67       -78.2083   23.6200  -69.8843 H         1 UNK         0.0900 
     68 H68       -79.8138   23.0374  -69.4372 H         1 UNK         0.0900 
     69 H69       -78.9060   22.2284  -70.7179 H         1 UNK         0.0900 
     70 H70       -81.4621   24.2875  -70.2775 H         1 UNK         0.2959 
     71 H71       -82.7265   25.5644  -71.5583 H         1 UNK         0.1079 
     72 H72       -80.1795   26.9178  -72.5855 H         1 UNK         0.0837 
     73 H73       -81.7959   27.5929  -72.5916 H         1 UNK         0.0837 
     74 H74       -78.7586   28.1991  -69.3966 H         1 UNK         0.0685 
     75 H75       -78.5731   27.0202  -70.6686 H         1 UNK         0.0685 
     76 H76       -80.2745   29.3529  -72.5555 H         1 UNK         0.1434 
     77 H77       -76.9338   31.7726  -73.6534 H         1 UNK         0.1329 
     78 H78       -76.5905   29.0379  -70.3714 H         1 UNK         0.1335 
     79 H79       -74.8322   30.5800  -70.7756 H         1 UNK         0.0680 
     80 H80       -75.1461   32.0141  -71.7263 H         1 UNK         0.0680 
     81 H81       -71.7951   30.9537  -73.0467 H         1 UNK         0.1032 
     82 H82       -72.5064   31.2998  -71.5046 H         1 UNK         0.1032 
     83 H83       -70.7921   29.4259  -71.5310 H         1 UNK         0.0461 
     84 H84       -73.4396   27.3401  -69.3703 H         1 UNK         0.3453 
     85 H85       -73.1119   26.9862  -71.0492 H         1 UNK         0.3453 
     86 H86       -72.5728   28.3005  -73.4962 H         1 UNK         0.2984 
     87 H87       -70.3153   25.8525  -74.4304 H         1 UNK         0.0554 
     88 H88       -71.5310   24.3920  -72.8270 H         1 UNK         0.0847 
     89 H89       -72.2046   24.2214  -74.4390 H         1 UNK         0.0847 
     90 H90       -73.0523   25.1762  -73.2224 H         1 UNK         0.0847 
     91 H91       -73.0114   26.6239  -75.2464 H         1 UNK         0.3141 
     92 H92       -73.1339   28.8475  -76.6736 H         1 UNK         0.0743 
     93 H93       -71.2109   29.8555  -77.8482 H         1 UNK         0.0784 
     94 H94       -70.9294   28.3767  -78.7539 H         1 UNK         0.0784 
     95 H95       -72.3996   29.3129  -79.0220 H         1 UNK         0.0784 
     96 H96       -74.2036   27.1179  -77.5188 H         1 UNK         0.3213 
     97 H97       -73.5407   24.4519  -79.6102 H         1 UNK         0.0855 
     98 H98       -73.8813   24.0782  -76.5839 H         1 UNK         0.0814 
     99 H99       -72.6389   23.3260  -77.5746 H         1 UNK         0.0814 
    100 H100      -74.3257   22.9029  -77.8205 H         1 UNK         0.0814 
    101 H101      -75.7662   25.0428  -77.8800 H         1 UNK         0.3105 
    102 H102      -77.2956   27.4095  -80.1116 H         1 UNK         0.0547 
    103 H103      -79.1510   25.7936  -79.8442 H         1 UNK         0.0837 
    104 H104      -77.9215   25.1167  -80.9005 H         1 UNK         0.0837 
    105 H105      -78.0419   24.5691  -79.2325 H         1 UNK         0.0837 
    106 H106      -78.1315   26.4155  -77.5860 H         1 UNK         0.3020 
    107 H107      -76.6668   29.0423  -75.6002 H         1 UNK         0.1245 
    108 H108      -79.2778   28.5595  -75.0102 H         1 UNK         0.0781 
    109 H109      -79.4424   28.4734  -76.7294 H         1 UNK         0.0781 
    110 H110      -80.5348   30.8542  -74.3350 H         1 UNK         0.0836 
    111 H111      -79.5023   32.2599  -74.3186 H         1 UNK         0.0836 
    112 H112      -78.0356   26.6184  -74.9378 H         1 UNK         0.3022 
    113 H113      -75.1988   24.6406  -74.3571 H         1 UNK         0.0747 
    114 H114      -75.1828   26.0875  -72.3188 H         1 UNK         0.0793 
    115 H115      -76.9368   26.0967  -72.2906 H         1 UNK         0.0793 
    116 H116      -76.0585   24.5931  -72.0146 H         1 UNK         0.0793 
    117 H117      -77.9664   24.3007  -73.7178 H         1 UNK         0.3047 
    118 H118      -78.7594   22.6865  -76.8721 H         1 UNK         0.0822 
    119 H119      -77.8042   21.1858  -75.0916 H         1 UNK         0.0807 
    120 H120      -79.5559   21.0996  -75.1724 H         1 UNK         0.0807 
    121 H121      -78.7780   22.0122  -73.8816 H         1 UNK         0.0807 
    122 H122      -80.6083   23.3927  -74.8949 H         1 UNK         0.2946 
    123 H123      -81.8256   26.4066  -76.3737 H         1 UNK         0.1144 
    124 H124      -83.8560   24.9770  -76.1791 H         1 UNK         0.0793 
    125 H125      -82.8499   23.5427  -75.9912 H         1 UNK         0.0793 
    126 H126      -82.8098   24.4538  -77.4886 H         1 UNK         0.0793 
    127 H127      -81.7975   26.7151  -74.2075 H         1 UNK         0.2896 
@<TRIPOS>BOND
     1    1    2 1    
     2    1   67 1    
     3    1   68 1    
     4    1   69 1    
     5    2    3 2    
     6    2    4 am   BACKBONE|DICT|INTERRES
     7    4    5 1    
     8    4   70 1    
     9    5    6 1    
    10    5   65 1    
    11    5   71 1    
    12    6    7 1    
    13    6   72 1    
    14    6   73 1    
    15    7    8 1    
    16    8    9 1    
    17    8   74 1    
    18    8   75 1    
    19    9   10 ar   
    20    9   14 ar   
    21   10   11 ar   
    22   10   76 1    
    23   11   12 ar   
    24   11   48 1    
    25   12   13 ar   
    26   12   77 1    
    27   13   14 ar   
    28   13   15 1    
    29   14   78 1    
    30   15   16 1    
    31   15   79 1    
    32   15   80 1    
    33   16   17 1    
    34   17   18 1    
    35   17   81 1    
    36   17   82 1    
    37   18   19 1    
    38   18   22 1    
    39   18   83 1    
    40   19   20 am   BACKBONE|DICT|INTERRES
    41   19   21 2    
    42   20   84 1    
    43   20   85 1    
    44   22   23 am   BACKBONE|DICT|INTERRES
    45   22   86 1    
    46   23   24 2    
    47   23   25 1    
    48   25   26 1    
    49   25   27 1    
    50   25   87 1    
    51   26   88 1    
    52   26   89 1    
    53   26   90 1    
    54   27   28 am   BACKBONE|DICT|INTERRES
    55   27   91 1    
    56   28   29 2    
    57   28   30 1    
    58   30   31 1    
    59   30   32 1    
    60   30   92 1    
    61   31   93 1    
    62   31   94 1    
    63   31   95 1    
    64   32   33 am   BACKBONE|DICT|INTERRES
    65   32   96 1    
    66   33   34 2    
    67   33   35 1    
    68   35   36 1    
    69   35   37 1    
    70   35   97 1    
    71   36   98 1    
    72   36   99 1    
    73   36  100 1    
    74   37   38 am   BACKBONE|DICT|INTERRES
    75   37  101 1    
    76   38   39 2    
    77   38   40 1    
    78   40   41 1    
    79   40   42 1    
    80   40  102 1    
    81   41  103 1    
    82   41  104 1    
    83   41  105 1    
    84   42   43 am   BACKBONE|DICT|INTERRES
    85   42  106 1    
    86   43   44 2    
    87   43   45 1    
    88   45   46 1    
    89   45   49 1    
    90   45  107 1    
    91   46   47 1    
    92   46  108 1    
    93   46  109 1    
    94   47   48 1    
    95   48  110 1    
    96   48  111 1    
    97   49   50 am   BACKBONE|DICT|INTERRES
    98   49  112 1    
    99   50   51 2    
   100   50   52 1    
   101   52   53 1    
   102   52   54 1    
   103   52  113 1    
   104   53  114 1    
   105   53  115 1    
   106   53  116 1    
   107   54   55 am   BACKBONE|DICT|INTERRES
   108   54  117 1    
   109   55   56 2    
   110   55   57 1    
   111   57   58 1    
   112   57   59 1    
   113   57  118 1    
   114   58  119 1    
   115   58  120 1    
   116   58  121 1    
   117   59   60 am   BACKBONE|DICT|INTERRES
   118   59  122 1    
   119   60   61 2    
   120   60   62 1    
   121   62   63 1    
   122   62   64 1    
   123   62  123 1    
   124   63  124 1    
   125   63  125 1    
   126   63  126 1    
   127   64   65 am   BACKBONE|DICT|INTERRES
   128   64  127 1    
   129   65   66 2    
@<TRIPOS>SUBSTRUCTURE
     1 UNK         1 GROUP             0       ****    0 ROOT    
