@<TRIPOS>MOLECULE
3R135
127   129    1
SMALL
USER_CHARGES


@<TRIPOS>ATOM
      1 CA        -83.8363   24.5290  -70.0245 C.3       0 UNK        -0.1998 
      2 C         -82.7076   24.5319  -71.0444 C.2       0 UNK         0.4909 
      3 O         -82.3283   23.4687  -71.5337 O.2       0 UNK        -0.5240 
      4 N         -82.1871   25.7221  -71.3769 N.am      1 UNK        -0.4739 
      5 CA        -81.0685   25.9896  -72.2987 C.3       1 UNK         0.0864 
      6 C6        -79.7341   25.3130  -71.8736 C.3       11 UNK        -0.0881 
      7 S7        -79.0364   26.0037  -70.3360 S.3       11 UNK        -0.2682 
      8 C8        -77.3244   26.3843  -70.8510 C.3       11 UNK         0.0289 
      9 C9        -77.1491   27.8088  -71.3704 C.ar      11 UNK        -0.0687 
     10 C10       -77.9329   28.3012  -72.4185 C.ar      11 UNK        -0.0823 
     11 C11       -77.7569   29.6041  -72.9032 C.ar      11 UNK        -0.0830 
     12 C12       -76.7726   30.4142  -72.3274 C.ar      11 UNK        -0.1021 
     13 C13       -75.9796   29.9361  -71.2804 C.ar      11 UNK        -0.0753 
     14 C14       -76.1735   28.6357  -70.8075 C.ar      11 UNK        -0.0933 
     15 C15       -74.9260   30.8220  -70.6354 C.3       11 UNK         0.0166 
     16 S16       -73.2832   30.5265  -71.3543 S.3       11 UNK        -0.2615 
     17 C17       -73.1489   31.9151  -72.5352 C.3       11 UNK        -0.0865 
     18 CA        -71.9374   31.7997  -73.4973 C.3       10 UNK         0.0862 
     19 C         -70.5755   31.8705  -72.7402 C.2       10 UNK         0.5551 
     20 N         -69.8037   30.7913  -72.6601 N.am      10 UNK        -0.7319 
     21 O         -70.2143   32.9272  -72.2279 O.2       10 UNK        -0.5018 
     22 N         -72.0825   30.6481  -74.3976 N.am      10 UNK        -0.4509 
     23 C         -71.3598   30.4426  -75.5063 C.2       10 UNK         0.4899 
     24 O         -70.5880   31.2795  -75.9773 O.2       10 UNK        -0.4839 
     25 CA        -71.5240   29.0832  -76.2160 C.3       9 UNK         0.0222 
     26 CB        -70.1908   28.5585  -76.7880 C.3       9 UNK        -0.1966 
     27 N         -72.1781   28.0446  -75.4093 N.am      9 UNK        -0.4218 
     28 C         -71.7641   27.5091  -74.2498 C.2       9 UNK         0.5020 
     29 O         -70.7623   27.8808  -73.6357 O.2       9 UNK        -0.5274 
     30 CA        -72.6252   26.3682  -73.6787 C.3       8 UNK         0.0270 
     31 CB        -73.8242   26.9299  -72.8972 C.3       8 UNK        -0.1976 
     32 N         -73.1061   25.4488  -74.7141 N.am      8 UNK        -0.4313 
     33 C         -72.3220   24.6404  -75.4432 C.2       8 UNK         0.5041 
     34 O         -71.1070   24.5263  -75.2774 O.2       8 UNK        -0.5577 
     35 CA        -73.0059   23.8350  -76.5587 C.3       7 UNK         0.0284 
     36 CB        -73.6833   22.5738  -75.9964 C.3       7 UNK        -0.1958 
     37 N         -73.9856   24.6492  -77.2797 N.am      7 UNK        -0.4454 
     38 C         -73.6745   25.5344  -78.2372 C.2       7 UNK         0.5089 
     39 O         -72.5347   25.7034  -78.6705 O.2       7 UNK        -0.5125 
     40 CA        -74.8258   26.3826  -78.8079 C.3       6 UNK         0.0408 
     41 CB        -75.4054   25.7209  -80.0675 C.3       6 UNK        -0.1791 
     42 N         -75.9033   26.6198  -77.8429 N.am      6 UNK        -0.4762 
     43 C         -75.7875   27.4094  -76.7625 C.2       6 UNK         0.5007 
     44 O         -74.7654   28.0345  -76.4859 O.2       6 UNK        -0.5032 
     45 CA        -76.9951   27.4855  -75.8038 C.3       5 UNK         0.0783 
     46 C46       -77.9177   28.6425  -76.2637 C.3       11 UNK        -0.0857 
     47 S47       -79.3350   28.9603  -75.1684 S.3       11 UNK        -0.2512 
     48 C48       -78.6507   30.1860  -73.9995 C.3       11 UNK         0.0225 
     49 N         -77.6880   26.1934  -75.6714 N.am      5 UNK        -0.4615 
     50 C         -77.0892   25.0378  -75.3427 C.2       4 UNK         0.5053 
     51 O         -75.9264   24.9792  -74.9415 O.2       4 UNK        -0.5105 
     52 CA        -77.8433   23.7148  -75.5831 C.3       4 UNK         0.0263 
     53 CB        -78.1811   22.9963  -74.2682 C.3       4 UNK        -0.1981 
     54 N         -79.0525   23.8157  -76.4034 N.am      4 UNK        -0.4224 
     55 C         -79.1277   24.2164  -77.6783 C.2       3 UNK         0.4895 
     56 O         -78.1492   24.5778  -78.3338 O.2       3 UNK        -0.5091 
     57 CA        -80.5272   24.2616  -78.3260 C.3       3 UNK         0.0250 
     58 CB        -80.8831   22.9087  -78.9723 C.3       3 UNK        -0.1996 
     59 N         -81.5989   24.7439  -77.4358 N.am      3 UNK        -0.4254 
     60 C         -82.1027   24.1683  -76.3329 C.2       2 UNK         0.5004 
     61 O         -81.7775   23.0523  -75.9219 O.2       2 UNK        -0.5226 
     62 CA        -83.0774   25.0230  -75.5003 C.3       2 UNK         0.0269 
     63 CB        -84.4635   24.3608  -75.4341 C.3       2 UNK        -0.1926 
     64 N         -82.5950   25.2691  -74.1335 N.am      2 UNK        -0.4687 
     65 C         -81.3816   25.7336  -73.7930 C.2       1 UNK         0.5165 
     66 O         -80.5136   26.0023  -74.6224 O.2       1 UNK        -0.5079 
     67 H67       -84.0819   25.5345  -69.6832 H         1 UNK         0.0900 
     68 H68       -83.5528   23.9366  -69.1550 H         1 UNK         0.0900 
     69 H69       -84.7339   24.0892  -70.4584 H         1 UNK         0.0900 
     70 H70       -82.5709   26.5494  -70.9404 H         1 UNK         0.2959 
     71 H71       -80.9142   27.0686  -72.2476 H         1 UNK         0.1079 
     72 H72       -78.9842   25.4155  -72.6583 H         1 UNK         0.0837 
     73 H73       -79.8641   24.2392  -71.7374 H         1 UNK         0.0837 
     74 H74       -76.6808   26.2216  -69.9852 H         1 UNK         0.0685 
     75 H75       -76.9834   25.6768  -71.6081 H         1 UNK         0.0685 
     76 H76       -78.6884   27.6680  -72.8548 H         1 UNK         0.1434 
     77 H77       -76.6324   31.4259  -72.6830 H         1 UNK         0.1329 
     78 H78       -75.5556   28.2678  -69.9997 H         1 UNK         0.1335 
     79 H79       -74.8801   30.6139  -69.5653 H         1 UNK         0.0680 
     80 H80       -75.1972   31.8751  -70.7251 H         1 UNK         0.0680 
     81 H81       -74.0714   31.9744  -73.1149 H         1 UNK         0.1032 
     82 H82       -73.0936   32.8481  -71.9710 H         1 UNK         0.1032 
     83 H83       -71.9616   32.6869  -74.1331 H         1 UNK         0.0461 
     84 H84       -68.9240   30.8455  -72.1725 H         1 UNK         0.3453 
     85 H85       -70.1125   29.9113  -73.0544 H         1 UNK         0.3453 
     86 H86       -72.6772   29.9032  -74.0668 H         1 UNK         0.2984 
     87 H87       -72.1930   29.2661  -77.0579 H         1 UNK         0.0554 
     88 H88       -70.3307   27.6109  -77.3090 H         1 UNK         0.0847 
     89 H89       -69.4480   28.4042  -76.0047 H         1 UNK         0.0847 
     90 H90       -69.7655   29.2607  -77.5060 H         1 UNK         0.0847 
     91 H91       -73.0767   27.7407  -75.7794 H         1 UNK         0.3141 
     92 H92       -72.0038   25.7960  -72.9868 H         1 UNK         0.0743 
     93 H93       -74.4755   27.5366  -73.5271 H         1 UNK         0.0784 
     94 H94       -74.4283   26.1313  -72.4665 H         1 UNK         0.0784 
     95 H95       -73.4892   27.5607  -72.0732 H         1 UNK         0.0784 
     96 H96       -74.1119   25.4125  -74.8681 H         1 UNK         0.3213 
     97 H97       -72.2332   23.5139  -77.2611 H         1 UNK         0.0855 
     98 H98       -72.9532   21.9320  -75.5016 H         1 UNK         0.0814 
     99 H99       -74.1458   21.9853  -76.7889 H         1 UNK         0.0814 
    100 H100      -74.4532   22.8115  -75.2622 H         1 UNK         0.0814 
    101 H101      -74.9401   24.6142  -76.9502 H         1 UNK         0.3105 
    102 H102      -74.4107   27.3511  -79.0950 H         1 UNK         0.0547 
    103 H103      -74.6317   25.5753  -80.8227 H         1 UNK         0.0837 
    104 H104      -75.8351   24.7425  -79.8489 H         1 UNK         0.0837 
    105 H105      -76.1848   26.3360  -80.5172 H         1 UNK         0.0837 
    106 H106      -76.7660   26.1030  -77.9874 H         1 UNK         0.3020 
    107 H107      -76.5943   27.7334  -74.8199 H         1 UNK         0.1245 
    108 H108      -78.3187   28.4300  -77.2568 H         1 UNK         0.0781 
    109 H109      -77.3505   29.5703  -76.3648 H         1 UNK         0.0781 
    110 H110      -79.4864   30.6920  -73.5146 H         1 UNK         0.0836 
    111 H111      -78.1161   30.9537  -74.5610 H         1 UNK         0.0836 
    112 H112      -78.6791   26.1833  -75.8799 H         1 UNK         0.3022 
    113 H113      -77.1441   23.0791  -76.1300 H         1 UNK         0.0747 
    114 H114      -77.3682   23.0710  -73.5441 H         1 UNK         0.0793 
    115 H115      -79.0794   23.4033  -73.8090 H         1 UNK         0.0793 
    116 H116      -78.3604   21.9352  -74.4419 H         1 UNK         0.0793 
    117 H117      -79.9268   23.5400  -75.9643 H         1 UNK         0.3047 
    118 H118      -80.4655   24.9970  -79.1299 H         1 UNK         0.0822 
    119 H119      -80.9314   22.1029  -78.2395 H         1 UNK         0.0807 
    120 H120      -80.1341   22.6249  -79.7129 H         1 UNK         0.0807 
    121 H121      -81.8440   22.9545  -79.4847 H         1 UNK         0.0807 
    122 H122      -81.9156   25.6805  -77.6466 H         1 UNK         0.2946 
    123 H123      -83.1882   25.9971  -75.9811 H         1 UNK         0.1144 
    124 H124      -84.8557   24.1741  -76.4348 H         1 UNK         0.0793 
    125 H125      -84.4263   23.4022  -74.9145 H         1 UNK         0.0793 
    126 H126      -85.1843   24.9952  -74.9180 H         1 UNK         0.0793 
    127 H127      -83.2275   25.0367  -73.3823 H         1 UNK         0.2896 
@<TRIPOS>BOND
     1    1    2 1    
     2    1   67 1    
     3    1   68 1    
     4    1   69 1    
     5    2    3 2    
     6    2    4 am   BACKBONE|DICT|INTERRES
     7    4    5 1    
     8    4   70 1    
     9    5    6 1    
    10    5   65 1    
    11    5   71 1    
    12    6    7 1    
    13    6   72 1    
    14    6   73 1    
    15    7    8 1    
    16    8    9 1    
    17    8   74 1    
    18    8   75 1    
    19    9   10 ar   
    20    9   14 ar   
    21   10   11 ar   
    22   10   76 1    
    23   11   12 ar   
    24   11   48 1    
    25   12   13 ar   
    26   12   77 1    
    27   13   14 ar   
    28   13   15 1    
    29   14   78 1    
    30   15   16 1    
    31   15   79 1    
    32   15   80 1    
    33   16   17 1    
    34   17   18 1    
    35   17   81 1    
    36   17   82 1    
    37   18   19 1    
    38   18   22 1    
    39   18   83 1    
    40   19   20 am   BACKBONE|DICT|INTERRES
    41   19   21 2    
    42   20   84 1    
    43   20   85 1    
    44   22   23 am   BACKBONE|DICT|INTERRES
    45   22   86 1    
    46   23   24 2    
    47   23   25 1    
    48   25   26 1    
    49   25   27 1    
    50   25   87 1    
    51   26   88 1    
    52   26   89 1    
    53   26   90 1    
    54   27   28 am   BACKBONE|DICT|INTERRES
    55   27   91 1    
    56   28   29 2    
    57   28   30 1    
    58   30   31 1    
    59   30   32 1    
    60   30   92 1    
    61   31   93 1    
    62   31   94 1    
    63   31   95 1    
    64   32   33 am   BACKBONE|DICT|INTERRES
    65   32   96 1    
    66   33   34 2    
    67   33   35 1    
    68   35   36 1    
    69   35   37 1    
    70   35   97 1    
    71   36   98 1    
    72   36   99 1    
    73   36  100 1    
    74   37   38 am   BACKBONE|DICT|INTERRES
    75   37  101 1    
    76   38   39 2    
    77   38   40 1    
    78   40   41 1    
    79   40   42 1    
    80   40  102 1    
    81   41  103 1    
    82   41  104 1    
    83   41  105 1    
    84   42   43 am   BACKBONE|DICT|INTERRES
    85   42  106 1    
    86   43   44 2    
    87   43   45 1    
    88   45   46 1    
    89   45   49 1    
    90   45  107 1    
    91   46   47 1    
    92   46  108 1    
    93   46  109 1    
    94   47   48 1    
    95   48  110 1    
    96   48  111 1    
    97   49   50 am   BACKBONE|DICT|INTERRES
    98   49  112 1    
    99   50   51 2    
   100   50   52 1    
   101   52   53 1    
   102   52   54 1    
   103   52  113 1    
   104   53  114 1    
   105   53  115 1    
   106   53  116 1    
   107   54   55 am   BACKBONE|DICT|INTERRES
   108   54  117 1    
   109   55   56 2    
   110   55   57 1    
   111   57   58 1    
   112   57   59 1    
   113   57  118 1    
   114   58  119 1    
   115   58  120 1    
   116   58  121 1    
   117   59   60 am   BACKBONE|DICT|INTERRES
   118   59  122 1    
   119   60   61 2    
   120   60   62 1    
   121   62   63 1    
   122   62   64 1    
   123   62  123 1    
   124   63  124 1    
   125   63  125 1    
   126   63  126 1    
   127   64   65 am   BACKBONE|DICT|INTERRES
   128   64  127 1    
   129   65   66 2    
@<TRIPOS>SUBSTRUCTURE
     1 UNK         1 GROUP             0       ****    0 ROOT    
