@<TRIPOS>MOLECULE
3R135
127   129    1
SMALL
USER_CHARGES


@<TRIPOS>ATOM
      1 CA        -80.0746   24.3216  -71.3687 C.3       0 UNK        -0.1998 
      2 C         -80.9112   25.0481  -72.4094 C.2       0 UNK         0.4909 
      3 O         -81.7674   24.4345  -73.0469 O.2       0 UNK        -0.5240 
      4 N         -80.6695   26.3537  -72.5860 N.am      1 UNK        -0.4739 
      5 CA        -81.3217   27.1827  -73.6052 C.3       1 UNK         0.0864 
      6 C6        -81.1455   28.6980  -73.3410 C.3       11 UNK        -0.0881 
      7 S7        -81.9337   29.2033  -71.7735 S.3       11 UNK        -0.2682 
      8 C8        -80.7836   30.4796  -71.1501 C.3       11 UNK         0.0289 
      9 C9        -79.3643   29.9856  -70.8721 C.ar      11 UNK        -0.0687 
     10 C10       -79.1148   28.6926  -70.3960 C.ar      11 UNK        -0.0823 
     11 C11       -77.8065   28.2520  -70.1759 C.ar      11 UNK        -0.0830 
     12 C12       -76.7429   29.1376  -70.3718 C.ar      11 UNK        -0.1021 
     13 C13       -76.9756   30.4288  -70.8500 C.ar      11 UNK        -0.0753 
     14 C14       -78.2860   30.8485  -71.0944 C.ar      11 UNK        -0.0933 
     15 C15       -75.8042   31.3528  -71.1316 C.3       11 UNK         0.0166 
     16 S16       -75.2989   31.2336  -72.8773 S.3       11 UNK        -0.2615 
     17 C17       -73.5011   31.5374  -72.7482 C.3       11 UNK        -0.0865 
     18 CA        -72.6398   30.2663  -72.9855 C.3       10 UNK         0.0862 
     19 C         -72.8346   29.1761  -71.8942 C.2       10 UNK         0.5551 
     20 N         -73.1874   27.9429  -72.2352 N.am      10 UNK        -0.7319 
     21 O         -72.6341   29.4501  -70.7137 O.2       10 UNK        -0.5018 
     22 N         -72.7424   29.7681  -74.3663 N.am      10 UNK        -0.4509 
     23 C         -72.0249   30.2323  -75.3952 C.2       10 UNK         0.4899 
     24 O         -71.2283   31.1692  -75.3091 O.2       10 UNK        -0.4839 
     25 CA        -72.2302   29.5144  -76.7418 C.3       9 UNK         0.0222 
     26 CB        -71.2867   30.0189  -77.8541 C.3       9 UNK        -0.1966 
     27 N         -72.1524   28.0555  -76.6128 N.am      9 UNK        -0.4218 
     28 C         -71.1191   27.3138  -76.1836 C.2       9 UNK         0.5020 
     29 O         -70.0231   27.7769  -75.8651 O.2       9 UNK        -0.5274 
     30 CA        -71.3391   25.7913  -76.0720 C.3       8 UNK         0.0270 
     31 CB        -71.4268   25.3718  -74.5950 C.3       8 UNK        -0.1976 
     32 N         -72.5360   25.3152  -76.7724 N.am      8 UNK        -0.4313 
     33 C         -72.6552   25.2097  -78.1032 C.2       8 UNK         0.5041 
     34 O         -71.7310   25.4103  -78.8921 O.2       8 UNK        -0.5577 
     35 CA        -74.0547   24.8709  -78.6476 C.3       7 UNK         0.0284 
     36 CB        -74.3086   23.3561  -78.6050 C.3       7 UNK        -0.1958 
     37 N         -75.1262   25.5780  -77.9366 N.am      7 UNK        -0.4454 
     38 C         -75.2785   26.9109  -77.9254 C.2       7 UNK         0.5089 
     39 O         -74.5596   27.6868  -78.5530 O.2       7 UNK        -0.5125 
     40 CA        -76.3862   27.4861  -77.0297 C.3       6 UNK         0.0408 
     41 CB        -77.7335   27.4807  -77.7646 C.3       6 UNK        -0.1791 
     42 N         -76.5039   26.7755  -75.7549 N.am      6 UNK        -0.4762 
     43 C         -75.5808   26.8121  -74.7832 C.2       6 UNK         0.5007 
     44 O         -74.5581   27.5007  -74.8298 O.2       6 UNK        -0.5032 
     45 CA        -75.8052   25.8930  -73.5671 C.3       5 UNK         0.0783 
     46 C46       -76.7403   26.5479  -72.5252 C.3       11 UNK        -0.0857 
     47 S47       -76.3918   25.9066  -70.8492 S.3       11 UNK        -0.2512 
     48 C48       -77.5492   26.8101  -69.7546 C.3       11 UNK         0.0225 
     49 N         -76.2477   24.5505  -73.9567 N.am      5 UNK        -0.4615 
     50 C         -75.4886   23.6868  -74.6440 C.2       4 UNK         0.5053 
     51 O         -74.3445   23.9358  -75.0217 O.2       4 UNK        -0.5105 
     52 CA        -76.1153   22.3284  -75.0008 C.3       4 UNK         0.0263 
     53 CB        -75.9653   21.3466  -73.8279 C.3       4 UNK        -0.1981 
     54 N         -77.5236   22.3952  -75.4062 N.am      4 UNK        -0.4224 
     55 C         -78.0145   23.1438  -76.4045 C.2       3 UNK         0.4895 
     56 O         -77.3322   23.9269  -77.0684 O.2       3 UNK        -0.5091 
     57 CA        -79.5140   23.0210  -76.7131 C.3       3 UNK         0.0250 
     58 CB        -80.3162   22.1707  -75.7034 C.3       3 UNK        -0.1996 
     59 N         -80.0587   24.3698  -76.7698 N.am      3 UNK        -0.4254 
     60 C         -81.0865   24.7966  -77.5050 C.2       2 UNK         0.5004 
     61 O         -81.7486   24.0663  -78.2449 O.2       2 UNK        -0.5226 
     62 CA        -81.4332   26.2963  -77.3684 C.3       2 UNK         0.0269 
     63 CB        -82.6357   26.7072  -78.2389 C.3       2 UNK        -0.1926 
     64 N         -81.6966   26.6982  -75.9805 N.am      2 UNK        -0.4687 
     65 C         -80.7889   26.8065  -74.9995 C.2       1 UNK         0.5165 
     66 O         -79.5789   26.6116  -75.1575 O.2       1 UNK        -0.5079 
     67 H67       -80.3561   24.6388  -70.3651 H         1 UNK         0.0900 
     68 H68       -79.0139   24.5184  -71.5152 H         1 UNK         0.0900 
     69 H69       -80.2260   23.2445  -71.4379 H         1 UNK         0.0900 
     70 H70       -79.9461   26.8114  -72.0532 H         1 UNK         0.2959 
     71 H71       -82.3908   26.9584  -73.5789 H         1 UNK         0.1079 
     72 H72       -80.0865   28.9632  -73.3340 H         1 UNK         0.0837 
     73 H73       -81.6002   29.2846  -74.1418 H         1 UNK         0.0837 
     74 H74       -81.1915   30.8921  -70.2266 H         1 UNK         0.0685 
     75 H75       -80.7639   31.2980  -71.8717 H         1 UNK         0.0685 
     76 H76       -79.9419   28.0217  -70.2113 H         1 UNK         0.1434 
     77 H77       -75.7280   28.8023  -70.2028 H         1 UNK         0.1329 
     78 H78       -78.4625   31.8475  -71.4696 H         1 UNK         0.1335 
     79 H79       -76.0673   32.3858  -70.8997 H         1 UNK         0.0680 
     80 H80       -74.9721   31.0916  -70.4760 H         1 UNK         0.0680 
     81 H81       -73.2620   31.9818  -71.7806 H         1 UNK         0.1032 
     82 H82       -73.2362   32.3000  -73.4819 H         1 UNK         0.1032 
     83 H83       -71.6005   30.5685  -72.8421 H         1 UNK         0.0461 
     84 H84       -73.2896   27.2535  -71.5084 H         1 UNK         0.3453 
     85 H85       -73.4051   27.7126  -73.1938 H         1 UNK         0.3453 
     86 H86       -73.4002   29.0109  -74.5260 H         1 UNK         0.2984 
     87 H87       -73.2520   29.7372  -77.0522 H         1 UNK         0.0554 
     88 H88       -71.4828   29.5106  -78.7982 H         1 UNK         0.0847 
     89 H89       -70.2379   29.8626  -77.5998 H         1 UNK         0.0847 
     90 H90       -71.4233   31.0870  -78.0269 H         1 UNK         0.0847 
     91 H91       -73.0081   27.5649  -76.8371 H         1 UNK         0.3141 
     92 H92       -70.4673   25.3043  -76.5138 H         1 UNK         0.0743 
     93 H93       -72.2966   25.8086  -74.1043 H         1 UNK         0.0784 
     94 H94       -71.4971   24.2885  -74.4947 H         1 UNK         0.0784 
     95 H95       -70.5434   25.6920  -74.0409 H         1 UNK         0.0784 
     96 H96       -73.3220   25.0344  -76.1892 H         1 UNK         0.3213 
     97 H97       -74.0887   25.1903  -79.6915 H         1 UNK         0.0855 
     98 H98       -74.2647   22.9675  -77.5881 H         1 UNK         0.0814 
     99 H99       -73.5600   22.8203  -79.1899 H         1 UNK         0.0814 
    100 H100      -75.2856   23.1046  -79.0182 H         1 UNK         0.0814 
    101 H101      -75.8089   25.0081  -77.4415 H         1 UNK         0.3105 
    102 H102      -76.1278   28.5247  -76.8115 H         1 UNK         0.0547 
    103 H103      -77.6547   27.9828  -78.7299 H         1 UNK         0.0837 
    104 H104      -78.0875   26.4665  -77.9515 H         1 UNK         0.0837 
    105 H105      -78.4934   28.0092  -77.1898 H         1 UNK         0.0837 
    106 H106      -77.3304   26.2072  -75.6245 H         1 UNK         0.3020 
    107 H107      -74.8202   25.7750  -73.1099 H         1 UNK         0.1245 
    108 H108      -77.7893   26.3952  -72.7804 H         1 UNK         0.0781 
    109 H109      -76.5838   27.6269  -72.5146 H         1 UNK         0.0781 
    110 H110      -77.1464   26.8052  -68.7410 H         1 UNK         0.0836 
    111 H111      -78.4843   26.2518  -69.7080 H         1 UNK         0.0836 
    112 H112      -77.1774   24.2735  -73.6818 H         1 UNK         0.3022 
    113 H113      -75.5574   21.9270  -75.8486 H         1 UNK         0.0747 
    114 H114      -76.2988   20.3456  -74.1019 H         1 UNK         0.0793 
    115 H115      -74.9218   21.2640  -73.5197 H         1 UNK         0.0793 
    116 H116      -76.5379   21.6656  -72.9560 H         1 UNK         0.0793 
    117 H117      -78.1620   21.7876  -74.9136 H         1 UNK         0.3047 
    118 H118      -79.5932   22.5628  -77.7010 H         1 UNK         0.0822 
    119 H119      -79.9609   21.1399  -75.6755 H         1 UNK         0.0807 
    120 H120      -81.3701   22.1304  -75.9795 H         1 UNK         0.0807 
    121 H121      -80.2621   22.5784  -74.6929 H         1 UNK         0.0807 
    122 H122      -79.5875   25.0615  -76.1921 H         1 UNK         0.2946 
    123 H123      -80.5668   26.8535  -77.7276 H         1 UNK         0.1144 
    124 H124      -82.4579   26.4707  -79.2890 H         1 UNK         0.0793 
    125 H125      -82.8215   27.7798  -78.1795 H         1 UNK         0.0793 
    126 H126      -83.5477   26.1903  -77.9378 H         1 UNK         0.0793 
    127 H127      -82.6684   26.8484  -75.7491 H         1 UNK         0.2896 
@<TRIPOS>BOND
     1    1    2 1    
     2    1   67 1    
     3    1   68 1    
     4    1   69 1    
     5    2    3 2    
     6    2    4 am   BACKBONE|DICT|INTERRES
     7    4    5 1    
     8    4   70 1    
     9    5    6 1    
    10    5   65 1    
    11    5   71 1    
    12    6    7 1    
    13    6   72 1    
    14    6   73 1    
    15    7    8 1    
    16    8    9 1    
    17    8   74 1    
    18    8   75 1    
    19    9   10 ar   
    20    9   14 ar   
    21   10   11 ar   
    22   10   76 1    
    23   11   12 ar   
    24   11   48 1    
    25   12   13 ar   
    26   12   77 1    
    27   13   14 ar   
    28   13   15 1    
    29   14   78 1    
    30   15   16 1    
    31   15   79 1    
    32   15   80 1    
    33   16   17 1    
    34   17   18 1    
    35   17   81 1    
    36   17   82 1    
    37   18   19 1    
    38   18   22 1    
    39   18   83 1    
    40   19   20 am   BACKBONE|DICT|INTERRES
    41   19   21 2    
    42   20   84 1    
    43   20   85 1    
    44   22   23 am   BACKBONE|DICT|INTERRES
    45   22   86 1    
    46   23   24 2    
    47   23   25 1    
    48   25   26 1    
    49   25   27 1    
    50   25   87 1    
    51   26   88 1    
    52   26   89 1    
    53   26   90 1    
    54   27   28 am   BACKBONE|DICT|INTERRES
    55   27   91 1    
    56   28   29 2    
    57   28   30 1    
    58   30   31 1    
    59   30   32 1    
    60   30   92 1    
    61   31   93 1    
    62   31   94 1    
    63   31   95 1    
    64   32   33 am   BACKBONE|DICT|INTERRES
    65   32   96 1    
    66   33   34 2    
    67   33   35 1    
    68   35   36 1    
    69   35   37 1    
    70   35   97 1    
    71   36   98 1    
    72   36   99 1    
    73   36  100 1    
    74   37   38 am   BACKBONE|DICT|INTERRES
    75   37  101 1    
    76   38   39 2    
    77   38   40 1    
    78   40   41 1    
    79   40   42 1    
    80   40  102 1    
    81   41  103 1    
    82   41  104 1    
    83   41  105 1    
    84   42   43 am   BACKBONE|DICT|INTERRES
    85   42  106 1    
    86   43   44 2    
    87   43   45 1    
    88   45   46 1    
    89   45   49 1    
    90   45  107 1    
    91   46   47 1    
    92   46  108 1    
    93   46  109 1    
    94   47   48 1    
    95   48  110 1    
    96   48  111 1    
    97   49   50 am   BACKBONE|DICT|INTERRES
    98   49  112 1    
    99   50   51 2    
   100   50   52 1    
   101   52   53 1    
   102   52   54 1    
   103   52  113 1    
   104   53  114 1    
   105   53  115 1    
   106   53  116 1    
   107   54   55 am   BACKBONE|DICT|INTERRES
   108   54  117 1    
   109   55   56 2    
   110   55   57 1    
   111   57   58 1    
   112   57   59 1    
   113   57  118 1    
   114   58  119 1    
   115   58  120 1    
   116   58  121 1    
   117   59   60 am   BACKBONE|DICT|INTERRES
   118   59  122 1    
   119   60   61 2    
   120   60   62 1    
   121   62   63 1    
   122   62   64 1    
   123   62  123 1    
   124   63  124 1    
   125   63  125 1    
   126   63  126 1    
   127   64   65 am   BACKBONE|DICT|INTERRES
   128   64  127 1    
   129   65   66 2    
@<TRIPOS>SUBSTRUCTURE
     1 UNK         1 GROUP             0       ****    0 ROOT    
