@<TRIPOS>MOLECULE
3R135
127   129    1
SMALL
USER_CHARGES


@<TRIPOS>ATOM
      1 CA        -84.2411   27.8499  -71.8830 C.3       0 UNK        -0.1998 
      2 C         -82.9567   27.6605  -72.6748 C.2       0 UNK         0.4909 
      3 O         -82.0588   26.9541  -72.2154 O.2       0 UNK        -0.5240 
      4 N         -82.8674   28.2872  -73.8572 N.am      1 UNK        -0.4739 
      5 CA        -81.7484   28.2788  -74.8168 C.3       1 UNK         0.0864 
      6 C6        -80.4088   28.8172  -74.2461 C.3       11 UNK        -0.0881 
      7 S7        -80.5159   30.5769  -73.7674 S.3       11 UNK        -0.2682 
      8 C8        -80.6141   30.5033  -71.9486 C.3       11 UNK         0.0289 
      9 C9        -79.3147   30.0214  -71.3218 C.ar      11 UNK        -0.0687 
     10 C10       -79.2018   28.7122  -70.8464 C.ar      11 UNK        -0.0823 
     11 C11       -78.0012   28.2582  -70.2931 C.ar      11 UNK        -0.0830 
     12 C12       -76.9191   29.1374  -70.1804 C.ar      11 UNK        -0.1021 
     13 C13       -77.0148   30.4421  -70.6732 C.ar      11 UNK        -0.0753 
     14 C14       -78.2181   30.8822  -71.2315 C.ar      11 UNK        -0.0933 
     15 C15       -75.8086   31.3660  -70.6510 C.3       11 UNK         0.0166 
     16 S16       -74.8274   31.1834  -72.1753 S.3       11 UNK        -0.2615 
     17 C17       -73.8716   29.6692  -71.8176 C.3       11 UNK        -0.0865 
     18 CA        -72.5154   29.6619  -72.5734 C.3       10 UNK         0.0862 
     19 C         -71.4863   28.6688  -71.9520 C.2       10 UNK         0.5551 
     20 N         -70.6939   27.9439  -72.7323 N.am      10 UNK        -0.7319 
     21 O         -71.3862   28.5641  -70.7321 O.2       10 UNK        -0.5018 
     22 N         -72.7170   29.4704  -74.0192 N.am      10 UNK        -0.4509 
     23 C         -72.0028   30.0555  -74.9862 C.2       10 UNK         0.4899 
     24 O         -71.1435   30.9160  -74.7865 O.2       10 UNK        -0.4839 
     25 CA        -72.2792   29.5432  -76.4137 C.3       9 UNK         0.0222 
     26 CB        -71.3710   30.1924  -77.4790 C.3       9 UNK        -0.1966 
     27 N         -72.2094   28.0778  -76.4935 N.am      9 UNK        -0.4218 
     28 C         -71.1713   27.2901  -76.1694 C.2       9 UNK         0.5020 
     29 O         -70.0840   27.7173  -75.7795 O.2       9 UNK        -0.5274 
     30 CA        -71.3777   25.7652  -76.2355 C.3       8 UNK         0.0270 
     31 CB        -71.3635   25.1653  -74.8192 C.3       8 UNK        -0.1976 
     32 N         -72.6186   25.3661  -76.9025 N.am      8 UNK        -0.4313 
     33 C         -72.8093   25.3634  -78.2285 C.2       8 UNK         0.5041 
     34 O         -71.9403   25.6631  -79.0478 O.2       8 UNK        -0.5577 
     35 CA        -74.2185   24.9945  -78.7187 C.3       7 UNK         0.0284 
     36 CB        -74.4251   23.4710  -78.7142 C.3       7 UNK        -0.1958 
     37 N         -75.2649   25.6405  -77.9228 N.am      7 UNK        -0.4454 
     38 C         -75.5525   26.9494  -77.9655 C.2       7 UNK         0.5089 
     39 O         -74.9807   27.7550  -78.6989 O.2       7 UNK        -0.5125 
     40 CA        -76.6509   27.4481  -77.0120 C.3       6 UNK         0.0408 
     41 CB        -78.0281   27.3503  -77.6863 C.3       6 UNK        -0.1791 
     42 N         -76.6676   26.7200  -75.7403 N.am      6 UNK        -0.4762 
     43 C         -75.7151   26.8355  -74.8016 C.2       6 UNK         0.5007 
     44 O         -74.7431   27.5858  -74.9001 O.2       6 UNK        -0.5032 
     45 CA        -75.8440   25.9406  -73.5548 C.3       5 UNK         0.0783 
     46 C46       -76.8300   26.5686  -72.5455 C.3       11 UNK        -0.0857 
     47 S47       -76.5845   25.9114  -70.8605 S.3       11 UNK        -0.2512 
     48 C48       -77.8567   26.7963  -69.8884 C.3       11 UNK         0.0225 
     49 N         -76.2091   24.5620  -73.8943 N.am      5 UNK        -0.4615 
     50 C         -75.4691   23.7371  -74.6485 C.2       4 UNK         0.5053 
     51 O         -74.3779   24.0390  -75.1270 O.2       4 UNK        -0.5105 
     52 CA        -76.1072   22.4001  -75.0264 C.3       4 UNK         0.0263 
     53 CB        -76.5023   21.5636  -73.7965 C.3       4 UNK        -0.1981 
     54 N         -77.2813   22.7198  -75.8245 N.am      4 UNK        -0.4224 
     55 C         -77.6338   22.1888  -76.9949 C.2       3 UNK         0.4895 
     56 O         -77.0713   21.2176  -77.5025 O.2       3 UNK        -0.5091 
     57 CA        -78.8001   22.8910  -77.7283 C.3       3 UNK         0.0250 
     58 CB        -79.3489   22.0515  -78.8971 C.3       3 UNK        -0.1996 
     59 N         -79.9200   23.2832  -76.8589 N.am      3 UNK        -0.4254 
     60 C         -79.9231   24.2599  -75.9401 C.2       2 UNK         0.5004 
     61 O         -78.9277   24.9312  -75.6460 O.2       2 UNK        -0.5226 
     62 CA        -81.2363   24.4608  -75.1684 C.3       2 UNK         0.0269 
     63 CB        -81.2688   23.5403  -73.9377 C.3       2 UNK        -0.1926 
     64 N         -81.4226   25.8416  -74.7219 N.am      2 UNK        -0.4687 
     65 C         -81.5607   26.9131  -75.5117 C.2       1 UNK         0.5165 
     66 O         -81.5784   26.8547  -76.7422 O.2       1 UNK        -0.5079 
     67 H67       -84.7251   26.8875  -71.7190 H         1 UNK         0.0900 
     68 H68       -84.0193   28.2900  -70.9112 H         1 UNK         0.0900 
     69 H69       -84.9466   28.5020  -72.3976 H         1 UNK         0.0900 
     70 H70       -83.6623   28.8315  -74.1633 H         1 UNK         0.2959 
     71 H71       -82.0516   28.9646  -75.6102 H         1 UNK         0.1079 
     72 H72       -80.0651   28.2105  -73.4094 H         1 UNK         0.0837 
     73 H73       -79.6208   28.7461  -74.9978 H         1 UNK         0.0837 
     74 H74       -81.4481   29.8697  -71.6480 H         1 UNK         0.0685 
     75 H75       -80.8445   31.5008  -71.5720 H         1 UNK         0.0685 
     76 H76       -80.0415   28.0367  -70.9370 H         1 UNK         0.1434 
     77 H77       -75.9850   28.7849  -69.7650 H         1 UNK         0.1329 
     78 H78       -78.2947   31.8880  -71.6218 H         1 UNK         0.1335 
     79 H79       -76.1388   32.4028  -70.5698 H         1 UNK         0.0680 
     80 H80       -75.1903   31.1761  -69.7724 H         1 UNK         0.0680 
     81 H81       -74.4671   28.7926  -72.0769 H         1 UNK         0.1032 
     82 H82       -73.7137   29.6207  -70.7391 H         1 UNK         0.1032 
     83 H83       -72.0615   30.6423  -72.4169 H         1 UNK         0.0461 
     84 H84       -70.0298   27.3194  -72.3039 H         1 UNK         0.3453 
     85 H85       -70.6999   28.0597  -73.7367 H         1 UNK         0.3453 
     86 H86       -73.4042   28.7697  -74.2870 H         1 UNK         0.2984 
     87 H87       -73.3102   29.8144  -76.6464 H         1 UNK         0.0554 
     88 H88       -71.4917   31.2763  -77.4861 H         1 UNK         0.0847 
     89 H89       -71.6147   29.8326  -78.4786 H         1 UNK         0.0847 
     90 H90       -70.3163   29.9843  -77.2956 H         1 UNK         0.0847 
     91 H91       -73.0749   27.6178  -76.7410 H         1 UNK         0.3141 
     92 H92       -70.5361   25.3466  -76.7915 H         1 UNK         0.0743 
     93 H93       -70.4214   25.3769  -74.3120 H         1 UNK         0.0784 
     94 H94       -72.1664   25.5717  -74.2023 H         1 UNK         0.0784 
     95 H95       -71.4783   24.0815  -74.8456 H         1 UNK         0.0784 
     96 H96       -73.3649   25.0285  -76.2959 H         1 UNK         0.3213 
     97 H97       -74.3121   25.3439  -79.7496 H         1 UNK         0.0855 
     98 H98       -74.3616   23.0515  -77.7099 H         1 UNK         0.0814 
     99 H99       -73.6662   22.9749  -79.3206 H         1 UNK         0.0814 
    100 H100      -75.3959   23.2002  -79.1298 H         1 UNK         0.0814 
    101 H101      -75.7610   25.0669  -77.2582 H         1 UNK         0.3105 
    102 H102      -76.4539   28.5007  -76.7969 H         1 UNK         0.0547 
    103 H103      -78.8160   27.7387  -77.0425 H         1 UNK         0.0837 
    104 H104      -78.2849   26.3220  -77.9412 H         1 UNK         0.0837 
    105 H105      -78.0516   27.9294  -78.6103 H         1 UNK         0.0837 
    106 H106      -77.4522   26.0897  -75.5846 H         1 UNK         0.3020 
    107 H107      -74.8512   25.9116  -73.0990 H         1 UNK         0.1245 
    108 H108      -77.8661   26.4122  -72.8532 H         1 UNK         0.0781 
    109 H109      -76.6835   27.6494  -72.5072 H         1 UNK         0.0781 
    110 H110      -77.6014   26.7378  -68.8296 H         1 UNK         0.0836 
    111 H111      -78.8056   26.2699  -70.0038 H         1 UNK         0.0836 
    112 H112      -77.0958   24.2413  -73.5352 H         1 UNK         0.3022 
    113 H113      -75.3843   21.8370  -75.6209 H         1 UNK         0.0747 
    114 H114      -76.8948   20.5922  -74.0975 H         1 UNK         0.0793 
    115 H115      -75.6383   21.3796  -73.1565 H         1 UNK         0.0793 
    116 H116      -77.2646   22.0523  -73.1890 H         1 UNK         0.0793 
    117 H117      -77.8040   23.5472  -75.5424 H         1 UNK         0.3047 
    118 H118      -78.3813   23.8051  -78.1541 H         1 UNK         0.0822 
    119 H119      -80.1256   22.5881  -79.4425 H         1 UNK         0.0807 
    120 H120      -79.7709   21.1072  -78.5508 H         1 UNK         0.0807 
    121 H121      -78.5625   21.8140  -79.6151 H         1 UNK         0.0807 
    122 H122      -80.7694   22.7511  -76.9845 H         1 UNK         0.2946 
    123 H123      -82.0704   24.2093  -75.8272 H         1 UNK         0.1144 
    124 H124      -80.4618   23.7726  -73.2410 H         1 UNK         0.0793 
    125 H125      -81.1623   22.4930  -74.2236 H         1 UNK         0.0793 
    126 H126      -82.2118   23.6330  -73.3983 H         1 UNK         0.0793 
    127 H127      -81.4555   26.0062  -73.7189 H         1 UNK         0.2896 
@<TRIPOS>BOND
     1    1    2 1    
     2    1   67 1    
     3    1   68 1    
     4    1   69 1    
     5    2    3 2    
     6    2    4 am   BACKBONE|DICT|INTERRES
     7    4    5 1    
     8    4   70 1    
     9    5    6 1    
    10    5   65 1    
    11    5   71 1    
    12    6    7 1    
    13    6   72 1    
    14    6   73 1    
    15    7    8 1    
    16    8    9 1    
    17    8   74 1    
    18    8   75 1    
    19    9   10 ar   
    20    9   14 ar   
    21   10   11 ar   
    22   10   76 1    
    23   11   12 ar   
    24   11   48 1    
    25   12   13 ar   
    26   12   77 1    
    27   13   14 ar   
    28   13   15 1    
    29   14   78 1    
    30   15   16 1    
    31   15   79 1    
    32   15   80 1    
    33   16   17 1    
    34   17   18 1    
    35   17   81 1    
    36   17   82 1    
    37   18   19 1    
    38   18   22 1    
    39   18   83 1    
    40   19   20 am   BACKBONE|DICT|INTERRES
    41   19   21 2    
    42   20   84 1    
    43   20   85 1    
    44   22   23 am   BACKBONE|DICT|INTERRES
    45   22   86 1    
    46   23   24 2    
    47   23   25 1    
    48   25   26 1    
    49   25   27 1    
    50   25   87 1    
    51   26   88 1    
    52   26   89 1    
    53   26   90 1    
    54   27   28 am   BACKBONE|DICT|INTERRES
    55   27   91 1    
    56   28   29 2    
    57   28   30 1    
    58   30   31 1    
    59   30   32 1    
    60   30   92 1    
    61   31   93 1    
    62   31   94 1    
    63   31   95 1    
    64   32   33 am   BACKBONE|DICT|INTERRES
    65   32   96 1    
    66   33   34 2    
    67   33   35 1    
    68   35   36 1    
    69   35   37 1    
    70   35   97 1    
    71   36   98 1    
    72   36   99 1    
    73   36  100 1    
    74   37   38 am   BACKBONE|DICT|INTERRES
    75   37  101 1    
    76   38   39 2    
    77   38   40 1    
    78   40   41 1    
    79   40   42 1    
    80   40  102 1    
    81   41  103 1    
    82   41  104 1    
    83   41  105 1    
    84   42   43 am   BACKBONE|DICT|INTERRES
    85   42  106 1    
    86   43   44 2    
    87   43   45 1    
    88   45   46 1    
    89   45   49 1    
    90   45  107 1    
    91   46   47 1    
    92   46  108 1    
    93   46  109 1    
    94   47   48 1    
    95   48  110 1    
    96   48  111 1    
    97   49   50 am   BACKBONE|DICT|INTERRES
    98   49  112 1    
    99   50   51 2    
   100   50   52 1    
   101   52   53 1    
   102   52   54 1    
   103   52  113 1    
   104   53  114 1    
   105   53  115 1    
   106   53  116 1    
   107   54   55 am   BACKBONE|DICT|INTERRES
   108   54  117 1    
   109   55   56 2    
   110   55   57 1    
   111   57   58 1    
   112   57   59 1    
   113   57  118 1    
   114   58  119 1    
   115   58  120 1    
   116   58  121 1    
   117   59   60 am   BACKBONE|DICT|INTERRES
   118   59  122 1    
   119   60   61 2    
   120   60   62 1    
   121   62   63 1    
   122   62   64 1    
   123   62  123 1    
   124   63  124 1    
   125   63  125 1    
   126   63  126 1    
   127   64   65 am   BACKBONE|DICT|INTERRES
   128   64  127 1    
   129   65   66 2    
@<TRIPOS>SUBSTRUCTURE
     1 UNK         1 GROUP             0       ****    0 ROOT    
