@<TRIPOS>MOLECULE
3R135
127   129    1
SMALL
USER_CHARGES


@<TRIPOS>ATOM
      1 CA        -85.1739   26.5910  -72.2655 C.3       0 UNK        -0.1998 
      2 C         -84.5468   27.5266  -73.2873 C.2       0 UNK         0.4909 
      3 O         -85.1006   27.7132  -74.3718 O.2       0 UNK        -0.5240 
      4 N         -83.3890   28.1120  -72.9575 N.am      1 UNK        -0.4739 
      5 CA        -82.6076   29.0280  -73.7981 C.3       1 UNK         0.0864 
      6 C6        -81.7271   29.9803  -72.9387 C.3       11 UNK        -0.0881 
      7 S7        -80.7283   29.1565  -71.6434 S.3       11 UNK        -0.2682 
      8 C8        -79.0376   29.5605  -72.1945 C.3       11 UNK         0.0289 
      9 C9        -77.9531   28.8598  -71.3829 C.ar      11 UNK        -0.0687 
     10 C10       -78.0298   27.4887  -71.1202 C.ar      11 UNK        -0.0823 
     11 C11       -76.9900   26.8296  -70.4580 C.ar      11 UNK        -0.0830 
     12 C12       -75.8682   27.5542  -70.0454 C.ar      11 UNK        -0.1021 
     13 C13       -75.7653   28.9191  -70.3254 C.ar      11 UNK        -0.0753 
     14 C14       -76.8216   29.5704  -70.9709 C.ar      11 UNK        -0.0933 
     15 C15       -74.4911   29.6722  -69.9705 C.3       11 UNK         0.0166 
     16 S16       -73.2307   29.5208  -71.2848 S.3       11 UNK        -0.2615 
     17 C17       -73.9224   30.5960  -72.5881 C.3       11 UNK        -0.0865 
     18 CA        -74.4194   29.7896  -73.8307 C.3       10 UNK         0.0862 
     19 C         -75.6167   30.4727  -74.5685 C.2       10 UNK         0.5551 
     20 N         -75.7552   30.3270  -75.8812 N.am      10 UNK        -0.7319 
     21 O         -76.4528   31.1223  -73.9460 O.2       10 UNK        -0.5018 
     22 N         -73.3205   29.3656  -74.7259 N.am      10 UNK        -0.4509 
     23 C         -72.5333   30.1886  -75.4390 C.2       10 UNK         0.4899 
     24 O         -72.5745   31.4162  -75.3444 O.2       10 UNK        -0.4839 
     25 CA        -71.5894   29.5629  -76.4863 C.3       9 UNK         0.0222 
     26 CB        -70.3178   30.4058  -76.7283 C.3       9 UNK        -0.1966 
     27 N         -71.2622   28.1527  -76.2557 N.am      9 UNK        -0.4218 
     28 C         -70.5082   27.6275  -75.2763 C.2       9 UNK         0.5020 
     29 O         -69.9653   28.2974  -74.3968 O.2       9 UNK        -0.5274 
     30 CA        -70.3232   26.0953  -75.2727 C.3       8 UNK         0.0270 
     31 CB        -70.5221   25.5101  -73.8619 C.3       8 UNK        -0.1976 
     32 N         -71.2540   25.4347  -76.1912 N.am      8 UNK        -0.4313 
     33 C         -70.9610   24.9759  -77.4156 C.2       8 UNK         0.5041 
     34 O         -69.8262   24.9810  -77.8932 O.2       8 UNK        -0.5577 
     35 CA        -72.1303   24.4401  -78.2675 C.3       7 UNK         0.0284 
     36 CB        -72.1501   22.9034  -78.2437 C.3       7 UNK        -0.1958 
     37 N         -73.4427   24.9481  -77.8498 N.am      7 UNK        -0.4454 
     38 C         -73.8425   26.2232  -77.9849 C.2       7 UNK         0.5089 
     39 O         -73.1630   27.0932  -78.5287 O.2       7 UNK        -0.5125 
     40 CA        -75.1781   26.6219  -77.3245 C.3       6 UNK         0.0408 
     41 CB        -76.3383   26.4776  -78.3197 C.3       6 UNK        -0.1791 
     42 N         -75.4787   25.8590  -76.1087 N.am      6 UNK        -0.4762 
     43 C         -74.6716   25.7804  -75.0382 C.2       6 UNK         0.5007 
     44 O         -73.6560   26.4653  -74.9213 O.2       6 UNK        -0.5032 
     45 CA        -74.9996   24.7529  -73.9333 C.3       5 UNK         0.0783 
     46 C46       -75.5308   25.5063  -72.6986 C.3       11 UNK        -0.0857 
     47 S47       -75.7469   24.4424  -71.2295 S.3       11 UNK        -0.2512 
     48 C48       -77.0412   25.3176  -70.2759 C.3       11 UNK         0.0225 
     49 N         -75.9263   23.6977  -74.3526 N.am      5 UNK        -0.4615 
     50 C         -75.7975   22.8675  -75.3970 C.2       4 UNK         0.5053 
     51 O         -74.7943   22.8125  -76.1085 O.2       4 UNK        -0.5105 
     52 CA        -77.0330   22.0152  -75.7522 C.3       4 UNK         0.0263 
     53 CB        -76.8587   20.5793  -75.2337 C.3       4 UNK        -0.1981 
     54 N         -78.3013   22.5659  -75.2466 N.am      4 UNK        -0.4224 
     55 C         -78.7950   23.7767  -75.5501 C.2       3 UNK         0.4895 
     56 O         -78.2564   24.5557  -76.3412 O.2       3 UNK        -0.5091 
     57 CA        -80.0327   24.2171  -74.7528 C.3       3 UNK         0.0250 
     58 CB        -79.6330   24.5853  -73.3128 C.3       3 UNK        -0.1996 
     59 N         -80.6658   25.3857  -75.3592 N.am      3 UNK        -0.4254 
     60 C         -81.5451   25.3591  -76.3654 C.2       2 UNK         0.5004 
     61 O         -81.9731   24.3181  -76.8684 O.2       2 UNK        -0.5226 
     62 CA        -82.0479   26.7301  -76.8643 C.3       2 UNK         0.0269 
     63 CB        -83.1351   26.6059  -77.9483 C.3       2 UNK        -0.1926 
     64 N         -82.5680   27.5560  -75.7687 N.am      2 UNK        -0.4687 
     65 C         -81.8348   28.2721  -74.9061 C.2       1 UNK         0.5165 
     66 O         -80.6050   28.3114  -74.9575 O.2       1 UNK        -0.5079 
     67 H67       -84.5788   26.5243  -71.3550 H         1 UNK         0.0900 
     68 H68       -85.2686   25.5891  -72.6833 H         1 UNK         0.0900 
     69 H69       -86.1689   26.9436  -71.9953 H         1 UNK         0.0900 
     70 H70       -82.9655   27.9061  -72.0629 H         1 UNK         0.2959 
     71 H71       -83.3139   29.6680  -74.3323 H         1 UNK         0.1079 
     72 H72       -82.3780   30.6910  -72.4273 H         1 UNK         0.0837 
     73 H73       -81.0867   30.5935  -73.5758 H         1 UNK         0.0837 
     74 H74       -78.9134   29.2764  -73.2393 H         1 UNK         0.0685 
     75 H75       -78.9087   30.6432  -72.1517 H         1 UNK         0.0685 
     76 H76       -78.8888   26.9300  -71.4637 H         1 UNK         0.1434 
     77 H77       -75.0477   27.0410  -69.5624 H         1 UNK         0.1329 
     78 H78       -76.7456   30.6253  -71.1943 H         1 UNK         0.1335 
     79 H79       -74.0778   29.2744  -69.0424 H         1 UNK         0.0680 
     80 H80       -74.7051   30.7249  -69.7787 H         1 UNK         0.0680 
     81 H81       -73.1644   31.3274  -72.8670 H         1 UNK         0.1032 
     82 H82       -74.7195   31.1918  -72.1450 H         1 UNK         0.1032 
     83 H83       -74.8562   28.8609  -73.4609 H         1 UNK         0.0461 
     84 H84       -75.0782   29.8064  -76.4122 H         1 UNK         0.3453 
     85 H85       -76.5364   30.7645  -76.3431 H         1 UNK         0.3453 
     86 H86       -73.2359   28.3621  -74.8593 H         1 UNK         0.2984 
     87 H87       -72.1550   29.5713  -77.4191 H         1 UNK         0.0554 
     88 H88       -69.6752   29.9501  -77.4815 H         1 UNK         0.0847 
     89 H89       -69.7328   30.5293  -75.8165 H         1 UNK         0.0847 
     90 H90       -70.5714   31.4047  -77.0853 H         1 UNK         0.0847 
     91 H91       -71.6709   27.5124  -76.9255 H         1 UNK         0.3141 
     92 H92       -69.2940   25.8974  -75.5787 H         1 UNK         0.0743 
     93 H93       -71.5092   25.7432  -73.4613 H         1 UNK         0.0784 
     94 H94       -70.4065   24.4261  -73.8618 H         1 UNK         0.0784 
     95 H95       -69.7864   25.9118  -73.1639 H         1 UNK         0.0784 
     96 H96       -72.2239   25.4459  -75.8951 H         1 UNK         0.3213 
     97 H97       -71.9576   24.7630  -79.2966 H         1 UNK         0.0855 
     98 H98       -72.3042   22.5174  -77.2352 H         1 UNK         0.0814 
     99 H99       -71.2060   22.4955  -78.6074 H         1 UNK         0.0814 
    100 H100      -72.9410   22.5053  -78.8796 H         1 UNK         0.0814 
    101 H101      -74.0456   24.2946  -77.3583 H         1 UNK         0.3105 
    102 H102      -75.1016   27.6724  -77.0396 H         1 UNK         0.0547 
    103 H103      -76.4912   25.4381  -78.6129 H         1 UNK         0.0837 
    104 H104      -77.2728   26.8439  -77.8939 H         1 UNK         0.0837 
    105 H105      -76.1495   27.0509  -79.2283 H         1 UNK         0.0837 
    106 H106      -76.3243   25.2966  -76.1276 H         1 UNK         0.3020 
    107 H107      -74.0568   24.2692  -73.6691 H         1 UNK         0.1245 
    108 H108      -74.8476   26.3107  -72.4155 H         1 UNK         0.0781 
    109 H109      -76.4806   25.9822  -72.9475 H         1 UNK         0.0781 
    110 H110      -78.0151   24.9276  -70.5751 H         1 UNK         0.0836 
    111 H111      -76.9292   25.0760  -69.2181 H         1 UNK         0.0836 
    112 H112      -76.7793   23.6405  -73.8181 H         1 UNK         0.3022 
    113 H113      -77.0990   21.9834  -76.8417 H         1 UNK         0.0747 
    114 H114      -77.6800   19.9381  -75.5543 H         1 UNK         0.0793 
    115 H115      -75.9375   20.1362  -75.6151 H         1 UNK         0.0793 
    116 H116      -76.8094   20.5457  -74.1445 H         1 UNK         0.0793 
    117 H117      -78.8036   21.9924  -74.5836 H         1 UNK         0.3047 
    118 H118      -80.7476   23.3917  -74.7267 H         1 UNK         0.0822 
    119 H119      -80.4945   24.9256  -72.7374 H         1 UNK         0.0807 
    120 H120      -78.8872   25.3806  -73.2975 H         1 UNK         0.0807 
    121 H121      -79.2122   23.7301  -72.7826 H         1 UNK         0.0807 
    122 H122      -80.3481   26.2961  -75.0442 H         1 UNK         0.2946 
    123 H123      -81.1889   27.2364  -77.3112 H         1 UNK         0.1144 
    124 H124      -83.4369   27.5848  -78.3211 H         1 UNK         0.0793 
    125 H125      -84.0255   26.1020  -77.5699 H         1 UNK         0.0793 
    126 H126      -82.7730   26.0338  -78.8036 H         1 UNK         0.0793 
    127 H127      -83.5703   27.5234  -75.6048 H         1 UNK         0.2896 
@<TRIPOS>BOND
     1    1    2 1    
     2    1   67 1    
     3    1   68 1    
     4    1   69 1    
     5    2    3 2    
     6    2    4 am   BACKBONE|DICT|INTERRES
     7    4    5 1    
     8    4   70 1    
     9    5    6 1    
    10    5   65 1    
    11    5   71 1    
    12    6    7 1    
    13    6   72 1    
    14    6   73 1    
    15    7    8 1    
    16    8    9 1    
    17    8   74 1    
    18    8   75 1    
    19    9   10 ar   
    20    9   14 ar   
    21   10   11 ar   
    22   10   76 1    
    23   11   12 ar   
    24   11   48 1    
    25   12   13 ar   
    26   12   77 1    
    27   13   14 ar   
    28   13   15 1    
    29   14   78 1    
    30   15   16 1    
    31   15   79 1    
    32   15   80 1    
    33   16   17 1    
    34   17   18 1    
    35   17   81 1    
    36   17   82 1    
    37   18   19 1    
    38   18   22 1    
    39   18   83 1    
    40   19   20 am   BACKBONE|DICT|INTERRES
    41   19   21 2    
    42   20   84 1    
    43   20   85 1    
    44   22   23 am   BACKBONE|DICT|INTERRES
    45   22   86 1    
    46   23   24 2    
    47   23   25 1    
    48   25   26 1    
    49   25   27 1    
    50   25   87 1    
    51   26   88 1    
    52   26   89 1    
    53   26   90 1    
    54   27   28 am   BACKBONE|DICT|INTERRES
    55   27   91 1    
    56   28   29 2    
    57   28   30 1    
    58   30   31 1    
    59   30   32 1    
    60   30   92 1    
    61   31   93 1    
    62   31   94 1    
    63   31   95 1    
    64   32   33 am   BACKBONE|DICT|INTERRES
    65   32   96 1    
    66   33   34 2    
    67   33   35 1    
    68   35   36 1    
    69   35   37 1    
    70   35   97 1    
    71   36   98 1    
    72   36   99 1    
    73   36  100 1    
    74   37   38 am   BACKBONE|DICT|INTERRES
    75   37  101 1    
    76   38   39 2    
    77   38   40 1    
    78   40   41 1    
    79   40   42 1    
    80   40  102 1    
    81   41  103 1    
    82   41  104 1    
    83   41  105 1    
    84   42   43 am   BACKBONE|DICT|INTERRES
    85   42  106 1    
    86   43   44 2    
    87   43   45 1    
    88   45   46 1    
    89   45   49 1    
    90   45  107 1    
    91   46   47 1    
    92   46  108 1    
    93   46  109 1    
    94   47   48 1    
    95   48  110 1    
    96   48  111 1    
    97   49   50 am   BACKBONE|DICT|INTERRES
    98   49  112 1    
    99   50   51 2    
   100   50   52 1    
   101   52   53 1    
   102   52   54 1    
   103   52  113 1    
   104   53  114 1    
   105   53  115 1    
   106   53  116 1    
   107   54   55 am   BACKBONE|DICT|INTERRES
   108   54  117 1    
   109   55   56 2    
   110   55   57 1    
   111   57   58 1    
   112   57   59 1    
   113   57  118 1    
   114   58  119 1    
   115   58  120 1    
   116   58  121 1    
   117   59   60 am   BACKBONE|DICT|INTERRES
   118   59  122 1    
   119   60   61 2    
   120   60   62 1    
   121   62   63 1    
   122   62   64 1    
   123   62  123 1    
   124   63  124 1    
   125   63  125 1    
   126   63  126 1    
   127   64   65 am   BACKBONE|DICT|INTERRES
   128   64  127 1    
   129   65   66 2    
@<TRIPOS>SUBSTRUCTURE
     1 UNK         1 GROUP             0       ****    0 ROOT    
