@<TRIPOS>MOLECULE
3R135
127   129    1
SMALL
USER_CHARGES


@<TRIPOS>ATOM
      1 CA        -83.4499   24.8834  -69.9480 C.3       0 UNK        -0.1998 
      2 C         -82.6410   25.5356  -71.0586 C.2       0 UNK         0.4909 
      3 O         -81.5144   25.1148  -71.3205 O.2       0 UNK        -0.5240 
      4 N         -83.2140   26.5488  -71.7246 N.am      1 UNK        -0.4739 
      5 CA        -82.6425   27.3544  -72.8186 C.3       1 UNK         0.0864 
      6 C6        -81.3083   28.0481  -72.4318 C.3       11 UNK        -0.0881 
      7 S7        -81.1505   29.7154  -73.1523 S.3       11 UNK        -0.2682 
      8 C8        -79.9263   30.4650  -72.0317 C.3       11 UNK         0.0289 
      9 C9        -78.5344   29.9054  -72.2809 C.ar      11 UNK        -0.0687 
     10 C10       -78.0861   28.7817  -71.5795 C.ar      11 UNK        -0.0823 
     11 C11       -76.8249   28.2364  -71.8418 C.ar      11 UNK        -0.0830 
     12 C12       -75.9967   28.8542  -72.7842 C.ar      11 UNK        -0.1021 
     13 C13       -76.4226   29.9935  -73.4725 C.ar      11 UNK        -0.0753 
     14 C14       -77.6970   30.5087  -73.2233 C.ar      11 UNK        -0.0933 
     15 C15       -75.5207   30.6550  -74.5044 C.3       11 UNK         0.0166 
     16 S16       -74.7197   32.1563  -73.8551 S.3       11 UNK        -0.2615 
     17 C17       -73.4733   31.4698  -72.7090 C.3       11 UNK        -0.0865 
     18 CA        -72.0472   31.4575  -73.3164 C.3       10 UNK         0.0862 
     19 C         -71.0044   31.0165  -72.2556 C.2       10 UNK         0.5551 
     20 N         -70.2559   31.9530  -71.6896 N.am      10 UNK        -0.7319 
     21 O         -70.9070   29.8410  -71.9099 O.2       10 UNK        -0.5018 
     22 N         -71.9837   30.6121  -74.5147 N.am      10 UNK        -0.4509 
     23 C         -71.0069   30.6395  -75.4279 C.2       10 UNK         0.4899 
     24 O         -70.0603   31.4281  -75.4004 O.2       10 UNK        -0.4839 
     25 CA        -71.1343   29.6118  -76.5689 C.3       9 UNK         0.0222 
     26 CB        -69.8897   29.5529  -77.4804 C.3       9 UNK        -0.1966 
     27 N         -71.5008   28.2752  -76.0834 N.am      9 UNK        -0.4218 
     28 C         -70.7884   27.4844  -75.2609 C.2       9 UNK         0.5020 
     29 O         -69.6816   27.7817  -74.8095 O.2       9 UNK        -0.5274 
     30 CA        -71.4037   26.1277  -74.8598 C.3       8 UNK         0.0270 
     31 CB        -71.9135   26.1876  -73.4100 C.3       8 UNK        -0.1976 
     32 N         -72.4912   25.6889  -75.7408 N.am      8 UNK        -0.4313 
     33 C         -72.3249   25.3082  -77.0178 C.2       8 UNK         0.5041 
     34 O         -71.2183   25.1694  -77.5409 O.2       8 UNK        -0.5577 
     35 CA        -73.5819   25.0676  -77.8802 C.3       7 UNK         0.0284 
     36 CB        -73.8154   23.5595  -78.0687 C.3       7 UNK        -0.1958 
     37 N         -74.8162   25.6788  -77.3769 N.am      7 UNK        -0.4454 
     38 C         -75.0091   26.9730  -77.0844 C.2       7 UNK         0.5089 
     39 O         -74.1633   27.8522  -77.2547 O.2       7 UNK        -0.5125 
     40 CA        -76.3419   27.3309  -76.4033 C.3       6 UNK         0.0408 
     41 CB        -77.4069   27.6858  -77.4496 C.3       6 UNK        -0.1791 
     42 N         -76.8554   26.2912  -75.5016 N.am      6 UNK        -0.4762 
     43 C         -76.1841   25.7554  -74.4673 C.2       6 UNK         0.5007 
     44 O         -75.0138   26.0221  -74.1948 O.2       6 UNK        -0.5032 
     45 CA        -76.9407   24.7109  -73.6301 C.3       5 UNK         0.0783 
     46 C46       -78.0435   25.3712  -72.7574 C.3       11 UNK        -0.0857 
     47 S47       -77.5485   25.6304  -71.0202 S.3       11 UNK        -0.2512 
     48 C48       -76.3327   26.9933  -71.1059 C.3       11 UNK         0.0225 
     49 N         -77.4764   23.6860  -74.5263 N.am      5 UNK        -0.4615 
     50 C         -76.7477   22.6942  -75.0588 C.2       4 UNK         0.5053 
     51 O         -75.5850   22.4529  -74.7358 O.2       4 UNK        -0.5105 
     52 CA        -77.4124   21.8318  -76.1486 C.3       4 UNK         0.0263 
     53 CB        -77.9986   20.5505  -75.5344 C.3       4 UNK        -0.1981 
     54 N         -78.4628   22.5341  -76.8900 N.am      4 UNK        -0.4224 
     55 C         -78.2657   23.5963  -77.6852 C.2       3 UNK         0.4895 
     56 O         -77.1571   24.0614  -77.9448 O.2       3 UNK        -0.5091 
     57 CA        -79.5249   24.2937  -78.2322 C.3       3 UNK         0.0250 
     58 CB        -79.9210   23.6986  -79.5923 C.3       3 UNK        -0.1996 
     59 N         -80.6706   24.2352  -77.3159 N.am      3 UNK        -0.4254 
     60 C         -80.6839   24.7346  -76.0715 C.2       2 UNK         0.5004 
     61 O         -79.7272   25.3235  -75.5593 O.2       2 UNK        -0.5226 
     62 CA        -81.9392   24.4266  -75.2419 C.3       2 UNK         0.0269 
     63 CB        -81.8751   22.9868  -74.7033 C.3       2 UNK        -0.1926 
     64 N         -82.0853   25.3324  -74.1052 N.am      2 UNK        -0.4687 
     65 C         -82.5341   26.5908  -74.1596 C.2       1 UNK         0.5165 
     66 O         -82.9034   27.1333  -75.2025 O.2       1 UNK        -0.5079 
     67 H67       -82.9143   24.9583  -69.0021 H         1 UNK         0.0900 
     68 H68       -83.6058   23.8278  -70.1687 H         1 UNK         0.0900 
     69 H69       -84.4258   25.3523  -69.8234 H         1 UNK         0.0900 
     70 H70       -84.1576   26.8092  -71.4711 H         1 UNK         0.2959 
     71 H71       -83.3898   28.1330  -72.9830 H         1 UNK         0.1079 
     72 H72       -80.4440   27.4436  -72.7117 H         1 UNK         0.0837 
     73 H73       -81.2516   28.1576  -71.3479 H         1 UNK         0.0837 
     74 H74       -79.9235   31.5449  -72.1873 H         1 UNK         0.0685 
     75 H75       -80.2239   30.3099  -70.9935 H         1 UNK         0.0685 
     76 H76       -78.7292   28.3147  -70.8463 H         1 UNK         0.1434 
     77 H77       -75.0181   28.4418  -72.9888 H         1 UNK         0.1329 
     78 H78       -78.0375   31.3801  -73.7659 H         1 UNK         0.1335 
     79 H79       -76.1142   30.9262  -75.3789 H         1 UNK         0.0680 
     80 H80       -74.7616   29.9581  -74.8611 H         1 UNK         0.0680 
     81 H81       -73.7645   30.4709  -72.3831 H         1 UNK         0.1032 
     82 H82       -73.4908   32.0884  -71.8096 H         1 UNK         0.1032 
     83 H83       -71.8104   32.4785  -73.6243 H         1 UNK         0.0461 
     84 H84       -70.3363   32.9202  -71.9629 H         1 UNK         0.3453 
     85 H85       -69.5856   31.6856  -70.9856 H         1 UNK         0.3453 
     86 H86       -72.6987   29.9078  -74.6000 H         1 UNK         0.2984 
     87 H87       -71.9712   29.9458  -77.1841 H         1 UNK         0.0554 
     88 H88       -70.0207   28.8282  -78.2839 H         1 UNK         0.0847 
     89 H89       -68.9912   29.2804  -76.9261 H         1 UNK         0.0847 
     90 H90       -69.7011   30.5213  -77.9455 H         1 UNK         0.0847 
     91 H91       -72.4044   27.9385  -76.4075 H         1 UNK         0.3141 
     92 H92       -70.6092   25.3804  -74.9107 H         1 UNK         0.0743 
     93 H93       -72.6757   26.9572  -73.2821 H         1 UNK         0.0784 
     94 H94       -72.3411   25.2350  -73.0965 H         1 UNK         0.0784 
     95 H95       -71.1010   26.4223  -72.7209 H         1 UNK         0.0784 
     96 H96       -73.4335   25.7641  -75.3651 H         1 UNK         0.3213 
     97 H97       -73.3831   25.5092  -78.8586 H         1 UNK         0.0855 
     98 H98       -74.0752   23.0731  -77.1276 H         1 UNK         0.0814 
     99 H99       -72.9215   23.0679  -78.4555 H         1 UNK         0.0814 
    100 H100      -74.6199   23.3674  -78.7788 H         1 UNK         0.0814 
    101 H101      -75.6121   25.0553  -77.2699 H         1 UNK         0.3105 
    102 H102      -76.1683   28.2144  -75.7905 H         1 UNK         0.0547 
    103 H103      -77.0988   28.5529  -78.0352 H         1 UNK         0.0837 
    104 H104      -77.5693   26.8666  -78.1490 H         1 UNK         0.0837 
    105 H105      -78.3618   27.9308  -76.9838 H         1 UNK         0.0837 
    106 H106      -77.8194   26.0023  -75.6415 H         1 UNK         0.3020 
    107 H107      -76.2128   24.2295  -72.9724 H         1 UNK         0.1245 
    108 H108      -78.9235   24.7265  -72.7183 H         1 UNK         0.0781 
    109 H109      -78.4100   26.3086  -73.1798 H         1 UNK         0.0781 
    110 H110      -75.4188   26.6110  -71.5626 H         1 UNK         0.0836 
    111 H111      -76.0626   27.2795  -70.0888 H         1 UNK         0.0836 
    112 H112      -78.4056   23.8635  -74.8868 H         1 UNK         0.3022 
    113 H113      -76.6339   21.5485  -76.8605 H         1 UNK         0.0747 
    114 H114      -78.4003   19.8892  -76.3024 H         1 UNK         0.0793 
    115 H115      -77.2323   19.9904  -74.9964 H         1 UNK         0.0793 
    116 H116      -78.7987   20.7705  -74.8262 H         1 UNK         0.0793 
    117 H117      -79.4097   22.2160  -76.7473 H         1 UNK         0.3047 
    118 H118      -79.2816   25.3465  -78.3802 H         1 UNK         0.0822 
    119 H119      -80.7552   24.2423  -80.0363 H         1 UNK         0.0807 
    120 H120      -80.2088   22.6499  -79.5085 H         1 UNK         0.0807 
    121 H121      -79.0904   23.7531  -80.2978 H         1 UNK         0.0807 
    122 H122      -81.4924   23.7560  -77.6563 H         1 UNK         0.2946 
    123 H123      -82.8163   24.5310  -75.8849 H         1 UNK         0.1144 
    124 H124      -81.0059   22.8344  -74.0615 H         1 UNK         0.0793 
    125 H125      -81.8159   22.2599  -75.5142 H         1 UNK         0.0793 
    126 H126      -82.7642   22.7434  -74.1211 H         1 UNK         0.0793 
    127 H127      -81.7675   24.9992  -73.1989 H         1 UNK         0.2896 
@<TRIPOS>BOND
     1    1    2 1    
     2    1   67 1    
     3    1   68 1    
     4    1   69 1    
     5    2    3 2    
     6    2    4 am   BACKBONE|DICT|INTERRES
     7    4    5 1    
     8    4   70 1    
     9    5    6 1    
    10    5   65 1    
    11    5   71 1    
    12    6    7 1    
    13    6   72 1    
    14    6   73 1    
    15    7    8 1    
    16    8    9 1    
    17    8   74 1    
    18    8   75 1    
    19    9   10 ar   
    20    9   14 ar   
    21   10   11 ar   
    22   10   76 1    
    23   11   12 ar   
    24   11   48 1    
    25   12   13 ar   
    26   12   77 1    
    27   13   14 ar   
    28   13   15 1    
    29   14   78 1    
    30   15   16 1    
    31   15   79 1    
    32   15   80 1    
    33   16   17 1    
    34   17   18 1    
    35   17   81 1    
    36   17   82 1    
    37   18   19 1    
    38   18   22 1    
    39   18   83 1    
    40   19   20 am   BACKBONE|DICT|INTERRES
    41   19   21 2    
    42   20   84 1    
    43   20   85 1    
    44   22   23 am   BACKBONE|DICT|INTERRES
    45   22   86 1    
    46   23   24 2    
    47   23   25 1    
    48   25   26 1    
    49   25   27 1    
    50   25   87 1    
    51   26   88 1    
    52   26   89 1    
    53   26   90 1    
    54   27   28 am   BACKBONE|DICT|INTERRES
    55   27   91 1    
    56   28   29 2    
    57   28   30 1    
    58   30   31 1    
    59   30   32 1    
    60   30   92 1    
    61   31   93 1    
    62   31   94 1    
    63   31   95 1    
    64   32   33 am   BACKBONE|DICT|INTERRES
    65   32   96 1    
    66   33   34 2    
    67   33   35 1    
    68   35   36 1    
    69   35   37 1    
    70   35   97 1    
    71   36   98 1    
    72   36   99 1    
    73   36  100 1    
    74   37   38 am   BACKBONE|DICT|INTERRES
    75   37  101 1    
    76   38   39 2    
    77   38   40 1    
    78   40   41 1    
    79   40   42 1    
    80   40  102 1    
    81   41  103 1    
    82   41  104 1    
    83   41  105 1    
    84   42   43 am   BACKBONE|DICT|INTERRES
    85   42  106 1    
    86   43   44 2    
    87   43   45 1    
    88   45   46 1    
    89   45   49 1    
    90   45  107 1    
    91   46   47 1    
    92   46  108 1    
    93   46  109 1    
    94   47   48 1    
    95   48  110 1    
    96   48  111 1    
    97   49   50 am   BACKBONE|DICT|INTERRES
    98   49  112 1    
    99   50   51 2    
   100   50   52 1    
   101   52   53 1    
   102   52   54 1    
   103   52  113 1    
   104   53  114 1    
   105   53  115 1    
   106   53  116 1    
   107   54   55 am   BACKBONE|DICT|INTERRES
   108   54  117 1    
   109   55   56 2    
   110   55   57 1    
   111   57   58 1    
   112   57   59 1    
   113   57  118 1    
   114   58  119 1    
   115   58  120 1    
   116   58  121 1    
   117   59   60 am   BACKBONE|DICT|INTERRES
   118   59  122 1    
   119   60   61 2    
   120   60   62 1    
   121   62   63 1    
   122   62   64 1    
   123   62  123 1    
   124   63  124 1    
   125   63  125 1    
   126   63  126 1    
   127   64   65 am   BACKBONE|DICT|INTERRES
   128   64  127 1    
   129   65   66 2    
@<TRIPOS>SUBSTRUCTURE
     1 UNK         1 GROUP             0       ****    0 ROOT    
