@<TRIPOS>MOLECULE
3R135
127   129    1
SMALL
USER_CHARGES


@<TRIPOS>ATOM
      1 CA        -82.8979   27.0739  -75.9058 C.3       0 UNK        -0.1998 
      2 C         -81.4378   27.2051  -76.3098 C.2       0 UNK         0.4909 
      3 O         -81.0922   26.8951  -77.4506 O.2       0 UNK        -0.5240 
      4 N         -80.5808   27.6537  -75.3810 N.am      1 UNK        -0.4739 
      5 CA        -79.1317   27.8251  -75.5468 C.3       1 UNK         0.0864 
      6 C6        -78.4672   28.3314  -74.2487 C.3       11 UNK        -0.0881 
      7 S7        -78.8711   30.0752  -73.8865 S.3       11 UNK        -0.2682 
      8 C8        -78.6933   30.1872  -72.0694 C.3       11 UNK         0.0289 
      9 C9        -77.6226   29.2583  -71.5105 C.ar      11 UNK        -0.0687 
     10 C10       -77.9915   28.1876  -70.6912 C.ar      11 UNK        -0.0823 
     11 C11       -77.0353   27.2727  -70.2447 C.ar      11 UNK        -0.0830 
     12 C12       -75.6954   27.4454  -70.6057 C.ar      11 UNK        -0.1021 
     13 C13       -75.3134   28.5167  -71.4186 C.ar      11 UNK        -0.0753 
     14 C14       -76.2783   29.4289  -71.8572 C.ar      11 UNK        -0.0933 
     15 C15       -73.8675   28.6621  -71.8619 C.3       11 UNK         0.0166 
     16 S16       -72.9364   29.7368  -70.7294 S.3       11 UNK        -0.2615 
     17 C17       -71.3105   29.7949  -71.5603 C.3       11 UNK        -0.0865 
     18 CA        -71.0003   31.1895  -72.1812 C.3       10 UNK         0.0862 
     19 C         -69.5271   31.3101  -72.6820 C.2       10 UNK         0.5551 
     20 N         -69.2480   32.0733  -73.7318 N.am      10 UNK        -0.7319 
     21 O         -68.6165   30.7326  -72.0925 O.2       10 UNK        -0.5018 
     22 N         -72.0252   31.6320  -73.1471 N.am      10 UNK        -0.4509 
     23 C         -72.3170   31.0389  -74.3107 C.2       10 UNK         0.4899 
     24 O         -71.7294   30.0505  -74.7578 O.2       10 UNK        -0.4839 
     25 CA        -73.4634   31.6627  -75.1124 C.3       9 UNK         0.0222 
     26 CB        -72.9983   32.9216  -75.8672 C.3       9 UNK        -0.1966 
     27 N         -73.9521   30.6663  -76.0581 N.am      9 UNK        -0.4218 
     28 C         -75.1847   30.6017  -76.5715 C.2       9 UNK         0.5020 
     29 O         -76.0654   31.4294  -76.3355 O.2       9 UNK        -0.5274 
     30 CA        -75.4954   29.4330  -77.5270 C.3       8 UNK         0.0270 
     31 CB        -75.6498   29.9402  -78.9708 C.3       8 UNK        -0.1976 
     32 N         -74.4963   28.3571  -77.5048 N.am      8 UNK        -0.4313 
     33 C         -74.4040   27.4350  -76.5383 C.2       8 UNK         0.5041 
     34 O         -75.1328   27.4249  -75.5470 O.2       8 UNK        -0.5577 
     35 CA        -73.3190   26.3572  -76.7256 C.3       7 UNK         0.0284 
     36 CB        -72.0854   26.6394  -75.8438 C.3       7 UNK        -0.1958 
     37 N         -73.8593   25.0021  -76.5351 N.am      7 UNK        -0.4454 
     38 C         -74.2439   24.4050  -75.3967 C.2       7 UNK         0.5089 
     39 O         -73.9986   24.8255  -74.2645 O.2       7 UNK        -0.5125 
     40 CA        -75.0517   23.1052  -75.5793 C.3       6 UNK         0.0408 
     41 CB        -74.1522   21.8531  -75.5344 C.3       6 UNK        -0.1791 
     42 N         -76.1775   23.0563  -74.6348 N.am      6 UNK        -0.4762 
     43 C         -76.1522   22.7621  -73.3249 C.2       6 UNK         0.5007 
     44 O         -75.2068   22.2203  -72.7502 O.2       6 UNK        -0.5032 
     45 CA        -77.3806   23.1649  -72.4891 C.3       5 UNK         0.0783 
     46 C46       -77.0161   24.3870  -71.6111 C.3       11 UNK        -0.0857 
     47 S47       -78.3285   24.8301  -70.4256 S.3       11 UNK        -0.2512 
     48 C48       -77.4631   26.0733  -69.4115 C.3       11 UNK         0.0225 
     49 N         -78.5559   23.4443  -73.3242 N.am      5 UNK        -0.4615 
     50 C         -79.6332   22.6555  -73.3995 C.2       4 UNK         0.5053 
     51 O         -79.7003   21.5309  -72.9025 O.2       4 UNK        -0.5105 
     52 CA        -80.8543   23.2310  -74.1270 C.3       4 UNK         0.0263 
     53 CB        -81.3496   24.5191  -73.4430 C.3       4 UNK        -0.1981 
     54 N         -80.5550   23.5070  -75.5316 N.am      4 UNK        -0.4224 
     55 C         -80.9666   22.7519  -76.5610 C.2       3 UNK         0.4895 
     56 O         -81.6067   21.7080  -76.4275 O.2       3 UNK        -0.5091 
     57 CA        -80.6492   23.2393  -77.9879 C.3       3 UNK         0.0250 
     58 CB        -81.9293   23.7357  -78.6815 C.3       3 UNK        -0.1996 
     59 N         -79.6467   24.3057  -78.0230 N.am      3 UNK        -0.4254 
     60 C         -78.3234   24.0933  -78.0042 C.2       2 UNK         0.5004 
     61 O         -77.8098   22.9753  -78.0184 O.2       2 UNK        -0.5226 
     62 CA        -77.4104   25.3299  -77.9209 C.3       2 UNK         0.0269 
     63 CB        -76.9067   25.7332  -79.3152 C.3       2 UNK        -0.1926 
     64 N         -78.0280   26.4877  -77.2742 N.am      2 UNK        -0.4687 
     65 C         -78.4624   26.5166  -76.0069 C.2       1 UNK         0.5165 
     66 O         -78.4069   25.5522  -75.2375 O.2       1 UNK        -0.5079 
     67 H67       -83.5188   27.7104  -76.5355 H         1 UNK         0.0900 
     68 H68       -83.2292   26.0434  -76.0311 H         1 UNK         0.0900 
     69 H69       -83.0616   27.3595  -74.8669 H         1 UNK         0.0900 
     70 H70       -80.9348   27.9030  -74.4688 H         1 UNK         0.2959 
     71 H71       -78.9787   28.5769  -76.3240 H         1 UNK         0.1079 
     72 H72       -77.3790   28.2658  -74.3172 H         1 UNK         0.0837 
     73 H73       -78.7580   27.6944  -73.4112 H         1 UNK         0.0837 
     74 H74       -79.6620   29.9707  -71.6163 H         1 UNK         0.0685 
     75 H75       -78.4545   31.2168  -71.7997 H         1 UNK         0.0685 
     76 H76       -79.0309   28.0382  -70.4317 H         1 UNK         0.1434 
     77 H77       -74.9521   26.7321  -70.2767 H         1 UNK         0.1329 
     78 H78       -75.9916   30.2470  -72.5040 H         1 UNK         0.1335 
     79 H79       -73.3885   27.6827  -71.9106 H         1 UNK         0.0680 
     80 H80       -73.8350   29.0668  -72.8737 H         1 UNK         0.0680 
     81 H81       -70.5623   29.5404  -70.8075 H         1 UNK         0.1032 
     82 H82       -71.2440   29.0119  -72.3175 H         1 UNK         0.1032 
     83 H83       -71.0574   31.9124  -71.3666 H         1 UNK         0.0461 
     84 H84       -68.2932   32.1562  -74.0436 H         1 UNK         0.3453 
     85 H85       -69.9840   32.5588  -74.2182 H         1 UNK         0.3453 
     86 H86       -72.5519   32.4488  -72.8723 H         1 UNK         0.2984 
     87 H87       -74.2654   31.9228  -74.4179 H         1 UNK         0.0554 
     88 H88       -72.6307   33.6827  -75.1779 H         1 UNK         0.0847 
     89 H89       -73.8155   33.3696  -76.4328 H         1 UNK         0.0847 
     90 H90       -72.1925   32.6963  -76.5671 H         1 UNK         0.0847 
     91 H91       -73.2949   29.9200  -76.2473 H         1 UNK         0.3141 
     92 H92       -76.4545   29.0169  -77.2127 H         1 UNK         0.0743 
     93 H93       -76.4147   30.7157  -79.0331 H         1 UNK         0.0784 
     94 H94       -75.9510   29.1384  -79.6452 H         1 UNK         0.0784 
     95 H95       -74.7213   30.3692  -79.3497 H         1 UNK         0.0784 
     96 H96       -73.8570   28.3191  -78.2867 H         1 UNK         0.3213 
     97 H97       -72.9866   26.3878  -77.7647 H         1 UNK         0.0855 
     98 H98       -72.3518   26.7566  -74.7926 H         1 UNK         0.0814 
     99 H99       -71.5947   27.5641  -76.1495 H         1 UNK         0.0814 
    100 H100      -71.3485   25.8399  -75.9185 H         1 UNK         0.0814 
    101 H101      -74.0812   24.5230  -77.3966 H         1 UNK         0.3105 
    102 H102      -75.5109   23.1235  -76.5672 H         1 UNK         0.0547 
    103 H103      -74.7411   20.9365  -75.5650 H         1 UNK         0.0837 
    104 H104      -73.5285   21.8263  -74.6406 H         1 UNK         0.0837 
    105 H105      -73.4769   21.8341  -76.3903 H         1 UNK         0.0837 
    106 H106      -77.0218   23.5019  -74.9680 H         1 UNK         0.3020 
    107 H107      -77.5861   22.3241  -71.8223 H         1 UNK         0.1245 
    108 H108      -76.1055   24.1942  -71.0397 H         1 UNK         0.0781 
    109 H109      -76.8059   25.2546  -72.2409 H         1 UNK         0.0781 
    110 H110      -76.6032   25.6102  -68.9250 H         1 UNK         0.0836 
    111 H111      -78.1260   26.4039  -68.6106 H         1 UNK         0.0836 
    112 H112      -78.5672   24.3428  -73.7999 H         1 UNK         0.3022 
    113 H113      -81.6573   22.4948  -74.0485 H         1 UNK         0.0747 
    114 H114      -82.2863   24.8611  -73.8824 H         1 UNK         0.0793 
    115 H115      -81.5352   24.3497  -72.3814 H         1 UNK         0.0793 
    116 H116      -80.6277   25.3326  -73.5195 H         1 UNK         0.0793 
    117 H117      -79.9654   24.3097  -75.7170 H         1 UNK         0.3047 
    118 H118      -80.2754   22.3798  -78.5489 H         1 UNK         0.0822 
    119 H119      -81.7293   24.0501  -79.7059 H         1 UNK         0.0807 
    120 H120      -82.3757   24.5786  -78.1532 H         1 UNK         0.0807 
    121 H121      -82.6807   22.9461  -78.7271 H         1 UNK         0.0807 
    122 H122      -79.9951   25.2600  -77.9886 H         1 UNK         0.2946 
    123 H123      -76.5508   25.0532  -77.3133 H         1 UNK         0.1144 
    124 H124      -76.1796   26.5430  -79.2572 H         1 UNK         0.0793 
    125 H125      -77.7236   26.0598  -79.9599 H         1 UNK         0.0793 
    126 H126      -76.4159   24.8945  -79.8113 H         1 UNK         0.0793 
    127 H127      -78.1761   27.2993  -77.8563 H         1 UNK         0.2896 
@<TRIPOS>BOND
     1    1    2 1    
     2    1   67 1    
     3    1   68 1    
     4    1   69 1    
     5    2    3 2    
     6    2    4 am   BACKBONE|DICT|INTERRES
     7    4    5 1    
     8    4   70 1    
     9    5    6 1    
    10    5   65 1    
    11    5   71 1    
    12    6    7 1    
    13    6   72 1    
    14    6   73 1    
    15    7    8 1    
    16    8    9 1    
    17    8   74 1    
    18    8   75 1    
    19    9   10 ar   
    20    9   14 ar   
    21   10   11 ar   
    22   10   76 1    
    23   11   12 ar   
    24   11   48 1    
    25   12   13 ar   
    26   12   77 1    
    27   13   14 ar   
    28   13   15 1    
    29   14   78 1    
    30   15   16 1    
    31   15   79 1    
    32   15   80 1    
    33   16   17 1    
    34   17   18 1    
    35   17   81 1    
    36   17   82 1    
    37   18   19 1    
    38   18   22 1    
    39   18   83 1    
    40   19   20 am   BACKBONE|DICT|INTERRES
    41   19   21 2    
    42   20   84 1    
    43   20   85 1    
    44   22   23 am   BACKBONE|DICT|INTERRES
    45   22   86 1    
    46   23   24 2    
    47   23   25 1    
    48   25   26 1    
    49   25   27 1    
    50   25   87 1    
    51   26   88 1    
    52   26   89 1    
    53   26   90 1    
    54   27   28 am   BACKBONE|DICT|INTERRES
    55   27   91 1    
    56   28   29 2    
    57   28   30 1    
    58   30   31 1    
    59   30   32 1    
    60   30   92 1    
    61   31   93 1    
    62   31   94 1    
    63   31   95 1    
    64   32   33 am   BACKBONE|DICT|INTERRES
    65   32   96 1    
    66   33   34 2    
    67   33   35 1    
    68   35   36 1    
    69   35   37 1    
    70   35   97 1    
    71   36   98 1    
    72   36   99 1    
    73   36  100 1    
    74   37   38 am   BACKBONE|DICT|INTERRES
    75   37  101 1    
    76   38   39 2    
    77   38   40 1    
    78   40   41 1    
    79   40   42 1    
    80   40  102 1    
    81   41  103 1    
    82   41  104 1    
    83   41  105 1    
    84   42   43 am   BACKBONE|DICT|INTERRES
    85   42  106 1    
    86   43   44 2    
    87   43   45 1    
    88   45   46 1    
    89   45   49 1    
    90   45  107 1    
    91   46   47 1    
    92   46  108 1    
    93   46  109 1    
    94   47   48 1    
    95   48  110 1    
    96   48  111 1    
    97   49   50 am   BACKBONE|DICT|INTERRES
    98   49  112 1    
    99   50   51 2    
   100   50   52 1    
   101   52   53 1    
   102   52   54 1    
   103   52  113 1    
   104   53  114 1    
   105   53  115 1    
   106   53  116 1    
   107   54   55 am   BACKBONE|DICT|INTERRES
   108   54  117 1    
   109   55   56 2    
   110   55   57 1    
   111   57   58 1    
   112   57   59 1    
   113   57  118 1    
   114   58  119 1    
   115   58  120 1    
   116   58  121 1    
   117   59   60 am   BACKBONE|DICT|INTERRES
   118   59  122 1    
   119   60   61 2    
   120   60   62 1    
   121   62   63 1    
   122   62   64 1    
   123   62  123 1    
   124   63  124 1    
   125   63  125 1    
   126   63  126 1    
   127   64   65 am   BACKBONE|DICT|INTERRES
   128   64  127 1    
   129   65   66 2    
@<TRIPOS>SUBSTRUCTURE
     1 UNK         1 GROUP             0       ****    0 ROOT    
