@<TRIPOS>MOLECULE
3R135
127   129    1
SMALL
USER_CHARGES


@<TRIPOS>ATOM
      1 CA        -81.3565   31.1936  -76.2864 C.3       0 UNK        -0.1998 
      2 C         -80.9436   29.9800  -75.4672 C.2       0 UNK         0.4909 
      3 O         -80.0085   29.2779  -75.8470 O.2       0 UNK        -0.5240 
      4 N         -81.6274   29.7366  -74.3428 N.am      1 UNK        -0.4739 
      5 CA        -81.4108   28.5850  -73.4604 C.3       1 UNK         0.0864 
      6 C6        -81.9655   28.8835  -72.0437 C.3       11 UNK        -0.0881 
      7 S7        -81.1744   27.9081  -70.7189 S.3       11 UNK        -0.2682 
      8 C8        -79.7974   28.9887  -70.2074 C.3       11 UNK         0.0289 
      9 C9        -78.5493   28.7138  -71.0316 C.ar      11 UNK        -0.0687 
     10 C10       -77.7057   27.6568  -70.6784 C.ar      11 UNK        -0.0823 
     11 C11       -76.5801   27.3564  -71.4506 C.ar      11 UNK        -0.0830 
     12 C12       -76.2992   28.1281  -72.5815 C.ar      11 UNK        -0.1021 
     13 C13       -77.1172   29.2079  -72.9281 C.ar      11 UNK        -0.0753 
     14 C14       -78.2388   29.4998  -72.1459 C.ar      11 UNK        -0.0933 
     15 C15       -76.8007   30.0447  -74.1600 C.3       11 UNK         0.0166 
     16 S16       -75.9387   31.5965  -73.7521 S.3       11 UNK        -0.2615 
     17 C17       -74.3196   30.9895  -73.1648 C.3       11 UNK        -0.0865 
     18 CA        -73.3093   30.6883  -74.3157 C.3       10 UNK         0.0862 
     19 C         -72.4494   31.9265  -74.7207 C.2       10 UNK         0.5551 
     20 N         -71.1594   31.7834  -75.0046 N.am      10 UNK        -0.7319 
     21 O         -72.9625   33.0391  -74.8074 O.2       10 UNK        -0.5018 
     22 N         -72.5337   29.4573  -74.0871 N.am      10 UNK        -0.4509 
     23 C         -71.7563   29.2051  -73.0224 C.2       10 UNK         0.4899 
     24 O         -71.6778   29.9389  -72.0371 O.2       10 UNK        -0.4839 
     25 CA        -70.8973   27.9258  -73.0625 C.3       9 UNK         0.0222 
     26 CB        -71.6488   26.7650  -72.3894 C.3       9 UNK        -0.1966 
     27 N         -70.4959   27.5188  -74.4124 N.am      9 UNK        -0.4218 
     28 C         -69.8110   28.2674  -75.2905 C.2       9 UNK         0.5020 
     29 O         -69.3402   29.3741  -75.0246 O.2       9 UNK        -0.5274 
     30 CA        -69.6686   27.7189  -76.7249 C.3       8 UNK         0.0270 
     31 CB        -68.2710   27.1114  -76.9286 C.3       8 UNK        -0.1976 
     32 N         -70.6859   26.7327  -77.1190 N.am      8 UNK        -0.4313 
     33 C         -72.0142   26.9187  -77.0983 C.2       8 UNK         0.5041 
     34 O         -72.5431   27.9653  -76.7102 O.2       8 UNK        -0.5577 
     35 CA        -72.8912   25.7331  -77.5467 C.3       7 UNK         0.0284 
     36 CB        -72.2722   24.3599  -77.2148 C.3       7 UNK        -0.1958 
     37 N         -74.1839   25.8277  -76.8772 N.am      7 UNK        -0.4454 
     38 C         -75.3182   26.2917  -77.4031 C.2       7 UNK         0.5089 
     39 O         -75.4622   26.5393  -78.6022 O.2       7 UNK        -0.5125 
     40 CA        -76.4741   26.5473  -76.4104 C.3       6 UNK         0.0408 
     41 CB        -77.7765   26.9499  -77.1233 C.3       6 UNK        -0.1791 
     42 N         -76.7745   25.4387  -75.4984 N.am      6 UNK        -0.4762 
     43 C         -76.0153   24.9630  -74.4996 C.2       6 UNK         0.5007 
     44 O         -74.8756   25.3618  -74.2557 O.2       6 UNK        -0.5032 
     45 CA        -76.6369   23.8534  -73.6308 C.3       5 UNK         0.0783 
     46 C46       -77.4561   24.4549  -72.4586 C.3       11 UNK        -0.0857 
     47 S47       -76.5079   24.5993  -70.9063 S.3       11 UNK        -0.2512 
     48 C48       -75.6575   26.2073  -71.0633 C.3       11 UNK         0.0225 
     49 N         -77.4642   22.9639  -74.4491 N.am      5 UNK        -0.4615 
     50 C         -77.0196   21.8756  -75.0897 C.2       4 UNK         0.5053 
     51 O         -75.8558   21.4784  -75.0335 O.2       4 UNK        -0.5105 
     52 CA        -78.0433   21.0788  -75.9209 C.3       4 UNK         0.0263 
     53 CB        -78.5669   19.8793  -75.1143 C.3       4 UNK        -0.1981 
     54 N         -79.1808   21.8869  -76.3689 N.am      4 UNK        -0.4224 
     55 C         -79.1252   22.7932  -77.3548 C.2       3 UNK         0.4895 
     56 O         -78.1242   22.9991  -78.0408 O.2       3 UNK        -0.5091 
     57 CA        -80.3933   23.6318  -77.6037 C.3       3 UNK         0.0250 
     58 CB        -81.2782   22.9611  -78.6667 C.3       3 UNK        -0.1996 
     59 N         -81.1984   23.9107  -76.4052 N.am      3 UNK        -0.4254 
     60 C         -80.7534   24.5437  -75.3112 C.2       2 UNK         0.5004 
     61 O         -79.5750   24.8606  -75.1366 O.2       2 UNK        -0.5226 
     62 CA        -81.7725   24.8278  -74.2008 C.3       2 UNK         0.0269 
     63 CB        -81.6777   23.7580  -73.1012 C.3       2 UNK        -0.1926 
     64 N         -81.4901   26.1394  -73.6182 N.am      2 UNK        -0.4687 
     65 C         -81.9947   27.2923  -74.0725 C.2       1 UNK         0.5165 
     66 O         -82.8851   27.3555  -74.9257 O.2       1 UNK        -0.5079 
     67 H67       -82.1854   31.7329  -75.8284 H         1 UNK         0.0900 
     68 H68       -81.6631   30.8840  -77.2851 H         1 UNK         0.0900 
     69 H69       -80.5172   31.8816  -76.3851 H         1 UNK         0.0900 
     70 H70       -82.4120   30.3268  -74.1065 H         1 UNK         0.2959 
     71 H71       -80.3330   28.4330  -73.3928 H         1 UNK         0.1079 
     72 H72       -81.8321   29.9389  -71.8006 H         1 UNK         0.0837 
     73 H73       -83.0439   28.7163  -72.0049 H         1 UNK         0.0837 
     74 H74       -80.0854   30.0387  -70.2739 H         1 UNK         0.0685 
     75 H75       -79.5832   28.8030  -69.1538 H         1 UNK         0.0685 
     76 H76       -77.9362   27.0527  -69.8112 H         1 UNK         0.1434 
     77 H77       -75.4347   27.8962  -73.1891 H         1 UNK         0.1329 
     78 H78       -78.8806   30.3265  -72.4190 H         1 UNK         0.1335 
     79 H79       -77.7273   30.2856  -74.6824 H         1 UNK         0.0680 
     80 H80       -76.1943   29.4787  -74.8667 H         1 UNK         0.0680 
     81 H81       -74.4889   30.1047  -72.5538 H         1 UNK         0.1032 
     82 H82       -73.9061   31.7218  -72.4689 H         1 UNK         0.1032 
     83 H83       -73.8839   30.4553  -75.2126 H         1 UNK         0.0461 
     84 H84       -70.6257   32.5944  -75.2735 H         1 UNK         0.3453 
     85 H85       -70.7013   30.8816  -74.9399 H         1 UNK         0.3453 
     86 H86       -72.5050   28.8188  -74.8775 H         1 UNK         0.2984 
     87 H87       -69.9857   28.1233  -72.4951 H         1 UNK         0.0554 
     88 H88       -71.0236   25.8752  -72.3140 H         1 UNK         0.0847 
     89 H89       -72.5522   26.4962  -72.9391 H         1 UNK         0.0847 
     90 H90       -71.9525   27.0311  -71.3759 H         1 UNK         0.0847 
     91 H91       -70.8383   26.6255  -74.7329 H         1 UNK         0.3141 
     92 H92       -69.7717   28.5714  -77.3995 H         1 UNK         0.0743 
     93 H93       -68.1190   26.2294  -76.3049 H         1 UNK         0.0784 
     94 H94       -68.1097   26.8222  -77.9673 H         1 UNK         0.0784 
     95 H95       -67.4912   27.8300  -76.6714 H         1 UNK         0.0784 
     96 H96       -70.3388   25.8420  -77.4454 H         1 UNK         0.3213 
     97 H97       -73.0183   25.8076  -78.6286 H         1 UNK         0.0855 
     98 H98       -72.0186   24.2725  -76.1572 H         1 UNK         0.0814 
     99 H99       -71.3675   24.1737  -77.7942 H         1 UNK         0.0814 
    100 H100      -72.9654   23.5523  -77.4523 H         1 UNK         0.0814 
    101 H101      -74.1850   25.6832  -75.8687 H         1 UNK         0.3105 
    102 H102      -76.1630   27.3896  -75.7928 H         1 UNK         0.0547 
    103 H103      -77.6396   27.8556  -77.7153 H         1 UNK         0.0837 
    104 H104      -78.1231   26.1646  -77.7955 H         1 UNK         0.0837 
    105 H105      -78.5730   27.1514  -76.4075 H         1 UNK         0.0837 
    106 H106      -77.7193   25.0709  -75.5680 H         1 UNK         0.3020 
    107 H107      -75.8116   23.2677  -73.2184 H         1 UNK         0.1245 
    108 H108      -78.2880   23.7926  -72.2160 H         1 UNK         0.0781 
    109 H109      -77.9290   25.4034  -72.7212 H         1 UNK         0.0781 
    110 H110      -74.8400   26.1057  -71.7769 H         1 UNK         0.0836 
    111 H111      -75.1882   26.4452  -70.1079 H         1 UNK         0.0836 
    112 H112      -78.4164   23.2717  -74.6062 H         1 UNK         0.3022 
    113 H113      -77.5235   20.6962  -76.8022 H         1 UNK         0.0747 
    114 H114      -79.2390   19.2622  -75.7112 H         1 UNK         0.0793 
    115 H115      -77.7453   19.2390  -74.7898 H         1 UNK         0.0793 
    116 H116      -79.1051   20.1964  -74.2201 H         1 UNK         0.0793 
    117 H117      -80.0505   21.7748  -75.8684 H         1 UNK         0.3047 
    118 H118      -80.0642   24.5954  -77.9978 H         1 UNK         0.0822 
    119 H119      -82.1193   23.5971  -78.9434 H         1 UNK         0.0807 
    120 H120      -81.6770   22.0075  -78.3182 H         1 UNK         0.0807 
    121 H121      -80.7121   22.7636  -79.5784 H         1 UNK         0.0807 
    122 H122      -82.1759   23.6611  -76.4572 H         1 UNK         0.2946 
    123 H123      -82.7816   24.8148  -74.6196 H         1 UNK         0.1144 
    124 H124      -81.8940   22.7658  -73.4993 H         1 UNK         0.0793 
    125 H125      -82.3951   23.9490  -72.3028 H         1 UNK         0.0793 
    126 H126      -80.6841   23.7215  -72.6538 H         1 UNK         0.0793 
    127 H127      -80.7533   26.1724  -72.9277 H         1 UNK         0.2896 
@<TRIPOS>BOND
     1    1    2 1    
     2    1   67 1    
     3    1   68 1    
     4    1   69 1    
     5    2    3 2    
     6    2    4 am   BACKBONE|DICT|INTERRES
     7    4    5 1    
     8    4   70 1    
     9    5    6 1    
    10    5   65 1    
    11    5   71 1    
    12    6    7 1    
    13    6   72 1    
    14    6   73 1    
    15    7    8 1    
    16    8    9 1    
    17    8   74 1    
    18    8   75 1    
    19    9   10 ar   
    20    9   14 ar   
    21   10   11 ar   
    22   10   76 1    
    23   11   12 ar   
    24   11   48 1    
    25   12   13 ar   
    26   12   77 1    
    27   13   14 ar   
    28   13   15 1    
    29   14   78 1    
    30   15   16 1    
    31   15   79 1    
    32   15   80 1    
    33   16   17 1    
    34   17   18 1    
    35   17   81 1    
    36   17   82 1    
    37   18   19 1    
    38   18   22 1    
    39   18   83 1    
    40   19   20 am   BACKBONE|DICT|INTERRES
    41   19   21 2    
    42   20   84 1    
    43   20   85 1    
    44   22   23 am   BACKBONE|DICT|INTERRES
    45   22   86 1    
    46   23   24 2    
    47   23   25 1    
    48   25   26 1    
    49   25   27 1    
    50   25   87 1    
    51   26   88 1    
    52   26   89 1    
    53   26   90 1    
    54   27   28 am   BACKBONE|DICT|INTERRES
    55   27   91 1    
    56   28   29 2    
    57   28   30 1    
    58   30   31 1    
    59   30   32 1    
    60   30   92 1    
    61   31   93 1    
    62   31   94 1    
    63   31   95 1    
    64   32   33 am   BACKBONE|DICT|INTERRES
    65   32   96 1    
    66   33   34 2    
    67   33   35 1    
    68   35   36 1    
    69   35   37 1    
    70   35   97 1    
    71   36   98 1    
    72   36   99 1    
    73   36  100 1    
    74   37   38 am   BACKBONE|DICT|INTERRES
    75   37  101 1    
    76   38   39 2    
    77   38   40 1    
    78   40   41 1    
    79   40   42 1    
    80   40  102 1    
    81   41  103 1    
    82   41  104 1    
    83   41  105 1    
    84   42   43 am   BACKBONE|DICT|INTERRES
    85   42  106 1    
    86   43   44 2    
    87   43   45 1    
    88   45   46 1    
    89   45   49 1    
    90   45  107 1    
    91   46   47 1    
    92   46  108 1    
    93   46  109 1    
    94   47   48 1    
    95   48  110 1    
    96   48  111 1    
    97   49   50 am   BACKBONE|DICT|INTERRES
    98   49  112 1    
    99   50   51 2    
   100   50   52 1    
   101   52   53 1    
   102   52   54 1    
   103   52  113 1    
   104   53  114 1    
   105   53  115 1    
   106   53  116 1    
   107   54   55 am   BACKBONE|DICT|INTERRES
   108   54  117 1    
   109   55   56 2    
   110   55   57 1    
   111   57   58 1    
   112   57   59 1    
   113   57  118 1    
   114   58  119 1    
   115   58  120 1    
   116   58  121 1    
   117   59   60 am   BACKBONE|DICT|INTERRES
   118   59  122 1    
   119   60   61 2    
   120   60   62 1    
   121   62   63 1    
   122   62   64 1    
   123   62  123 1    
   124   63  124 1    
   125   63  125 1    
   126   63  126 1    
   127   64   65 am   BACKBONE|DICT|INTERRES
   128   64  127 1    
   129   65   66 2    
@<TRIPOS>SUBSTRUCTURE
     1 UNK         1 GROUP             0       ****    0 ROOT    
