@<TRIPOS>MOLECULE
3R135
127   129    1
SMALL
USER_CHARGES


@<TRIPOS>ATOM
      1 CA        -82.1653   28.3243  -75.5836 C.3       0 UNK        -0.1998 
      2 C         -83.2183   28.0713  -74.5108 C.2       0 UNK         0.4909 
      3 O         -84.4065   28.2347  -74.7807 O.2       0 UNK        -0.5240 
      4 N         -82.8466   27.6749  -73.2854 N.am      1 UNK        -0.4739 
      5 CA        -81.4794   27.4083  -72.8073 C.3       1 UNK         0.0864 
      6 C6        -81.3875   27.5604  -71.2701 C.3       11 UNK        -0.0881 
      7 S7        -81.6742   29.2940  -70.7763 S.3       11 UNK        -0.2682 
      8 C8        -80.0856   29.7536  -70.0093 C.3       11 UNK         0.0289 
      9 C9        -78.8782   29.5400  -70.9170 C.ar      11 UNK        -0.0687 
     10 C10       -78.7825   30.1932  -72.1526 C.ar      11 UNK        -0.0823 
     11 C11       -77.6475   30.0296  -72.9549 C.ar      11 UNK        -0.0830 
     12 C12       -76.5993   29.2256  -72.5006 C.ar      11 UNK        -0.1021 
     13 C13       -76.6851   28.5622  -71.2774 C.ar      11 UNK        -0.0753 
     14 C14       -77.8297   28.7159  -70.4916 C.ar      11 UNK        -0.0933 
     15 C15       -75.5149   27.7190  -70.8000 C.3       11 UNK         0.0166 
     16 S16       -74.3431   28.7578  -69.8761 S.3       11 UNK        -0.2615 
     17 C17       -72.7362   27.9839  -70.2586 C.3       11 UNK        -0.0865 
     18 CA        -71.9456   28.7968  -71.3221 C.3       10 UNK         0.0862 
     19 C         -70.4249   28.4516  -71.3064 C.2       10 UNK         0.5551 
     20 N         -69.7802   28.1639  -72.4310 N.am      10 UNK        -0.7319 
     21 O         -69.8067   28.4584  -70.2448 O.2       10 UNK        -0.5018 
     22 N         -72.5709   28.6905  -72.6515 N.am      10 UNK        -0.4509 
     23 C         -72.5571   29.6429  -73.5934 C.2       10 UNK         0.4899 
     24 O         -72.1109   30.7774  -73.4170 O.2       10 UNK        -0.4839 
     25 CA        -73.1202   29.2354  -74.9731 C.3       9 UNK         0.0222 
     26 CB        -72.7286   30.2136  -76.1000 C.3       9 UNK        -0.1966 
     27 N         -72.7803   27.8527  -75.3399 N.am      9 UNK        -0.4218 
     28 C         -71.5494   27.3300  -75.4536 C.2       9 UNK         0.5020 
     29 O         -70.5130   27.9773  -75.3027 O.2       9 UNK        -0.5274 
     30 CA        -71.4439   25.8251  -75.7249 C.3       8 UNK         0.0270 
     31 CB        -71.5221   25.0434  -74.4013 C.3       8 UNK        -0.1976 
     32 N         -72.4868   25.3402  -76.6336 N.am      8 UNK        -0.4313 
     33 C         -72.2452   24.7159  -77.7932 C.2       8 UNK         0.5041 
     34 O         -71.1193   24.5571  -78.2684 O.2       8 UNK        -0.5577 
     35 CA        -73.4505   24.1270  -78.5414 C.3       7 UNK         0.0284 
     36 CB        -73.8067   22.7434  -77.9726 C.3       7 UNK        -0.1958 
     37 N         -74.6426   24.9754  -78.5288 N.am      7 UNK        -0.4454 
     38 C         -74.7899   26.0888  -79.2597 C.2       7 UNK         0.5089 
     39 O         -73.8912   26.5937  -79.9329 O.2       7 UNK        -0.5125 
     40 CA        -76.1882   26.7270  -79.2689 C.3       6 UNK         0.0408 
     41 CB        -77.1417   25.9291  -80.1738 C.3       6 UNK        -0.1791 
     42 N         -76.7505   26.8074  -77.9217 N.am      6 UNK        -0.4762 
     43 C         -76.5683   27.8454  -77.0939 C.2       6 UNK         0.5007 
     44 O         -75.9590   28.8683  -77.4070 O.2       6 UNK        -0.5032 
     45 CA        -77.1114   27.7043  -75.6564 C.3       5 UNK         0.0783 
     46 C46       -78.5268   28.3018  -75.4832 C.3       11 UNK        -0.0857 
     47 S47       -78.6677   30.1214  -75.5715 S.3       11 UNK        -0.2512 
     48 C48       -77.5218   30.7456  -74.2943 C.3       11 UNK         0.0225 
     49 N         -77.0838   26.3244  -75.1642 N.am      5 UNK        -0.4615 
     50 C         -75.9752   25.6019  -74.9705 C.2       4 UNK         0.5053 
     51 O         -74.8388   26.0265  -75.1741 O.2       4 UNK        -0.5105 
     52 CA        -76.1603   24.1467  -74.5179 C.3       4 UNK         0.0263 
     53 CB        -76.2383   24.0794  -72.9847 C.3       4 UNK        -0.1981 
     54 N         -77.3348   23.4878  -75.0990 N.am      4 UNK        -0.4224 
     55 C         -77.5904   23.3500  -76.4102 C.2       3 UNK         0.4895 
     56 O         -76.8669   23.7972  -77.2994 O.2       3 UNK        -0.5091 
     57 CA        -78.8822   22.6126  -76.8013 C.3       3 UNK         0.0250 
     58 CB        -78.5894   21.1277  -77.0673 C.3       3 UNK        -0.1996 
     59 N         -79.9367   22.7316  -75.7902 N.am      3 UNK        -0.4254 
     60 C         -80.5825   23.8714  -75.5073 C.2       2 UNK         0.5004 
     61 O         -80.4147   24.9168  -76.1412 O.2       2 UNK        -0.5226 
     62 CA        -81.5762   23.8335  -74.3252 C.3       2 UNK         0.0269 
     63 CB        -81.1486   22.8635  -73.1992 C.3       2 UNK        -0.1926 
     64 N         -81.8427   25.1658  -73.7664 N.am      2 UNK        -0.4687 
     65 C         -80.9489   26.0279  -73.2537 C.2       1 UNK         0.5165 
     66 O         -79.7465   25.7827  -73.1394 O.2       1 UNK        -0.5079 
     67 H67       -81.5743   27.4297  -75.7738 H         1 UNK         0.0900 
     68 H68       -82.6376   28.6114  -76.5228 H         1 UNK         0.0900 
     69 H69       -81.5030   29.1362  -75.2869 H         1 UNK         0.0900 
     70 H70       -83.5688   27.5460  -72.5907 H         1 UNK         0.2959 
     71 H71       -80.8082   28.1492  -73.2427 H         1 UNK         0.1079 
     72 H72       -82.1221   26.9254  -70.7716 H         1 UNK         0.0837 
     73 H73       -80.4127   27.2367  -70.8999 H         1 UNK         0.0837 
     74 H74       -80.1275   30.8054  -69.7236 H         1 UNK         0.0685 
     75 H75       -79.9765   29.1907  -69.0809 H         1 UNK         0.0685 
     76 H76       -79.5888   30.8322  -72.4866 H         1 UNK         0.1434 
     77 H77       -75.6979   29.1250  -73.0855 H         1 UNK         0.1329 
     78 H78       -77.8879   28.2162  -69.5343 H         1 UNK         0.1335 
     79 H79       -75.0216   27.2585  -71.6572 H         1 UNK         0.0680 
     80 H80       -75.8603   26.9023  -70.1643 H         1 UNK         0.0680 
     81 H81       -72.1871   27.9395  -69.3160 H         1 UNK         0.1032 
     82 H82       -72.8696   26.9470  -70.5714 H         1 UNK         0.1032 
     83 H83       -71.9861   29.8442  -71.0166 H         1 UNK         0.0461 
     84 H84       -68.7964   27.9526  -72.3839 H         1 UNK         0.3453 
     85 H85       -70.2383   28.1977  -73.3343 H         1 UNK         0.3453 
     86 H86       -72.9318   27.7818  -72.8975 H         1 UNK         0.2984 
     87 H87       -74.2053   29.2674  -74.8828 H         1 UNK         0.0554 
     88 H88       -73.0894   31.2206  -75.8872 H         1 UNK         0.0847 
     89 H89       -73.1634   29.9110  -77.0528 H         1 UNK         0.0847 
     90 H90       -71.6475   30.2752  -76.2274 H         1 UNK         0.0847 
     91 H91       -73.5713   27.2127  -75.4033 H         1 UNK         0.3141 
     92 H92       -70.4537   25.6544  -76.1526 H         1 UNK         0.0743 
     93 H93       -70.7625   25.3866  -73.6972 H         1 UNK         0.0784 
     94 H94       -72.4929   25.1564  -73.9171 H         1 UNK         0.0784 
     95 H95       -71.3537   23.9787  -74.5636 H         1 UNK         0.0784 
     96 H96       -73.4476   25.4478  -76.3213 H         1 UNK         0.3213 
     97 H97       -73.1511   23.9906  -79.5832 H         1 UNK         0.0855 
     98 H98       -74.1373   22.8051  -76.9354 H         1 UNK         0.0814 
     99 H99       -72.9452   22.0747  -78.0017 H         1 UNK         0.0814 
    100 H100      -74.6029   22.2709  -78.5483 H         1 UNK         0.0814 
    101 H101      -75.4544   24.6080  -78.0338 H         1 UNK         0.3105 
    102 H102      -76.0977   27.7308  -79.6899 H         1 UNK         0.0547 
    103 H103      -78.1188   26.4080  -80.2377 H         1 UNK         0.0837 
    104 H104      -76.7484   25.8606  -81.1889 H         1 UNK         0.0837 
    105 H105      -77.2919   24.9107  -79.8135 H         1 UNK         0.0837 
    106 H106      -77.2062   25.9753  -77.5679 H         1 UNK         0.3020 
    107 H107      -76.4196   28.2618  -75.0308 H         1 UNK         0.1245 
    108 H108      -78.9156   28.0137  -74.5077 H         1 UNK         0.0781 
    109 H109      -79.2109   27.8662  -76.2135 H         1 UNK         0.0781 
    110 H110      -77.7127   31.8095  -74.1469 H         1 UNK         0.0836 
    111 H111      -76.5021   30.6792  -74.6769 H         1 UNK         0.0836 
    112 H112      -77.9780   25.8997  -74.9542 H         1 UNK         0.3022 
    113 H113      -75.2790   23.5899  -74.8417 H         1 UNK         0.0747 
    114 H114      -77.1204   24.5958  -72.6021 H         1 UNK         0.0793 
    115 H115      -76.2733   23.0482  -72.6330 H         1 UNK         0.0793 
    116 H116      -75.3641   24.5457  -72.5278 H         1 UNK         0.0793 
    117 H117      -78.0006   23.1017  -74.4465 H         1 UNK         0.3047 
    118 H118      -79.2458   23.0611  -77.7286 H         1 UNK         0.0822 
    119 H119      -77.8210   21.0139  -77.8337 H         1 UNK         0.0807 
    120 H120      -79.4778   20.6053  -77.4228 H         1 UNK         0.0807 
    121 H121      -78.2337   20.6167  -76.1716 H         1 UNK         0.0807 
    122 H122      -80.1443   21.9057  -75.2471 H         1 UNK         0.2946 
    123 H123      -82.5221   23.4775  -74.7370 H         1 UNK         0.1144 
    124 H124      -81.8360   22.9162  -72.3548 H         1 UNK         0.0793 
    125 H125      -80.1496   23.0895  -72.8239 H         1 UNK         0.0793 
    126 H126      -81.1501   21.8267  -73.5369 H         1 UNK         0.0793 
    127 H127      -82.7987   25.4860  -73.8373 H         1 UNK         0.2896 
@<TRIPOS>BOND
     1    1    2 1    
     2    1   67 1    
     3    1   68 1    
     4    1   69 1    
     5    2    3 2    
     6    2    4 am   BACKBONE|DICT|INTERRES
     7    4    5 1    
     8    4   70 1    
     9    5    6 1    
    10    5   65 1    
    11    5   71 1    
    12    6    7 1    
    13    6   72 1    
    14    6   73 1    
    15    7    8 1    
    16    8    9 1    
    17    8   74 1    
    18    8   75 1    
    19    9   10 ar   
    20    9   14 ar   
    21   10   11 ar   
    22   10   76 1    
    23   11   12 ar   
    24   11   48 1    
    25   12   13 ar   
    26   12   77 1    
    27   13   14 ar   
    28   13   15 1    
    29   14   78 1    
    30   15   16 1    
    31   15   79 1    
    32   15   80 1    
    33   16   17 1    
    34   17   18 1    
    35   17   81 1    
    36   17   82 1    
    37   18   19 1    
    38   18   22 1    
    39   18   83 1    
    40   19   20 am   BACKBONE|DICT|INTERRES
    41   19   21 2    
    42   20   84 1    
    43   20   85 1    
    44   22   23 am   BACKBONE|DICT|INTERRES
    45   22   86 1    
    46   23   24 2    
    47   23   25 1    
    48   25   26 1    
    49   25   27 1    
    50   25   87 1    
    51   26   88 1    
    52   26   89 1    
    53   26   90 1    
    54   27   28 am   BACKBONE|DICT|INTERRES
    55   27   91 1    
    56   28   29 2    
    57   28   30 1    
    58   30   31 1    
    59   30   32 1    
    60   30   92 1    
    61   31   93 1    
    62   31   94 1    
    63   31   95 1    
    64   32   33 am   BACKBONE|DICT|INTERRES
    65   32   96 1    
    66   33   34 2    
    67   33   35 1    
    68   35   36 1    
    69   35   37 1    
    70   35   97 1    
    71   36   98 1    
    72   36   99 1    
    73   36  100 1    
    74   37   38 am   BACKBONE|DICT|INTERRES
    75   37  101 1    
    76   38   39 2    
    77   38   40 1    
    78   40   41 1    
    79   40   42 1    
    80   40  102 1    
    81   41  103 1    
    82   41  104 1    
    83   41  105 1    
    84   42   43 am   BACKBONE|DICT|INTERRES
    85   42  106 1    
    86   43   44 2    
    87   43   45 1    
    88   45   46 1    
    89   45   49 1    
    90   45  107 1    
    91   46   47 1    
    92   46  108 1    
    93   46  109 1    
    94   47   48 1    
    95   48  110 1    
    96   48  111 1    
    97   49   50 am   BACKBONE|DICT|INTERRES
    98   49  112 1    
    99   50   51 2    
   100   50   52 1    
   101   52   53 1    
   102   52   54 1    
   103   52  113 1    
   104   53  114 1    
   105   53  115 1    
   106   53  116 1    
   107   54   55 am   BACKBONE|DICT|INTERRES
   108   54  117 1    
   109   55   56 2    
   110   55   57 1    
   111   57   58 1    
   112   57   59 1    
   113   57  118 1    
   114   58  119 1    
   115   58  120 1    
   116   58  121 1    
   117   59   60 am   BACKBONE|DICT|INTERRES
   118   59  122 1    
   119   60   61 2    
   120   60   62 1    
   121   62   63 1    
   122   62   64 1    
   123   62  123 1    
   124   63  124 1    
   125   63  125 1    
   126   63  126 1    
   127   64   65 am   BACKBONE|DICT|INTERRES
   128   64  127 1    
   129   65   66 2    
@<TRIPOS>SUBSTRUCTURE
     1 UNK         1 GROUP             0       ****    0 ROOT    
