@<TRIPOS>MOLECULE
3R135
127   129    1
SMALL
USER_CHARGES


@<TRIPOS>ATOM
      1 CA        -83.6677   27.0765  -72.8576 C.3       0 UNK        -0.1998 
      2 C         -82.2902   26.9541  -73.4910 C.2       0 UNK         0.4909 
      3 O         -81.8820   27.8359  -74.2475 O.2       0 UNK        -0.5240 
      4 N         -81.5709   25.8698  -73.1892 N.am      1 UNK        -0.4739 
      5 CA        -80.2377   25.5733  -73.7081 C.3       1 UNK         0.0864 
      6 C6        -79.1279   26.4550  -73.0779 C.3       11 UNK        -0.0881 
      7 S7        -78.9803   26.2913  -71.2649 S.3       11 UNK        -0.2682 
      8 C8        -79.4604   27.9580  -70.7195 C.3       11 UNK         0.0289 
      9 C9        -78.3755   28.9793  -71.0272 C.ar      11 UNK        -0.0687 
     10 C10       -78.5382   29.9028  -72.0655 C.ar      11 UNK        -0.0823 
     11 C11       -77.5441   30.8500  -72.3284 C.ar      11 UNK        -0.0830 
     12 C12       -76.3937   30.8804  -71.5357 C.ar      11 UNK        -0.1021 
     13 C13       -76.2053   29.9422  -70.5182 C.ar      11 UNK        -0.0753 
     14 C14       -77.2042   28.9988  -70.2641 C.ar      11 UNK        -0.0933 
     15 C15       -74.9268   29.9437  -69.6932 C.3       11 UNK         0.0166 
     16 S16       -73.5542   29.1282  -70.5739 S.3       11 UNK        -0.2615 
     17 C17       -72.8940   30.4894  -71.6002 C.3       11 UNK        -0.0865 
     18 CA        -73.2247   30.3493  -73.1168 C.3       10 UNK         0.0862 
     19 C         -72.8692   31.6310  -73.9301 C.2       10 UNK         0.5551 
     20 N         -72.4577   31.5234  -75.1881 N.am      10 UNK        -0.7319 
     21 O         -72.9921   32.7446  -73.4256 O.2       10 UNK        -0.5018 
     22 N         -72.7429   29.0969  -73.7227 N.am      10 UNK        -0.4509 
     23 C         -71.4738   28.6728  -73.7939 C.2       10 UNK         0.4899 
     24 O         -70.5189   29.2746  -73.3005 O.2       10 UNK        -0.4839 
     25 CA        -71.2218   27.3802  -74.5948 C.3       9 UNK         0.0222 
     26 CB        -69.9381   26.6389  -74.1631 C.3       9 UNK        -0.1966 
     27 N         -72.3805   26.4804  -74.6312 N.am      9 UNK        -0.4218 
     28 C         -72.9225   25.7857  -73.6176 C.2       9 UNK         0.5020 
     29 O         -72.4624   25.7674  -72.4754 O.2       9 UNK        -0.5274 
     30 CA        -74.2013   24.9722  -73.9129 C.3       8 UNK         0.0270 
     31 CB        -75.3916   25.5288  -73.1140 C.3       8 UNK        -0.1976 
     32 N         -74.5620   24.9284  -75.3337 N.am      8 UNK        -0.4313 
     33 C         -73.9213   24.2120  -76.2684 C.2       8 UNK         0.5041 
     34 O         -73.0059   23.4259  -76.0231 O.2       8 UNK        -0.5577 
     35 CA        -74.3217   24.4707  -77.7318 C.3       7 UNK         0.0284 
     36 CB        -75.4902   23.5692  -78.1549 C.3       7 UNK        -0.1958 
     37 N         -74.6630   25.8755  -77.9812 N.am      7 UNK        -0.4454 
     38 C         -73.7771   26.8819  -77.9779 C.2       7 UNK         0.5089 
     39 O         -72.5722   26.7317  -77.7812 O.2       7 UNK        -0.5125 
     40 CA        -74.3334   28.3009  -78.1869 C.3       6 UNK         0.0408 
     41 CB        -74.4567   28.6168  -79.6855 C.3       6 UNK        -0.1791 
     42 N         -75.6262   28.5158  -77.5313 N.am      6 UNK        -0.4762 
     43 C         -75.8171   28.4998  -76.2030 C.2       6 UNK         0.5007 
     44 O         -74.9182   28.2924  -75.3876 O.2       6 UNK        -0.5032 
     45 CA        -77.2729   28.6724  -75.7150 C.3       5 UNK         0.0783 
     46 C46       -77.7567   30.1474  -75.7524 C.3       11 UNK        -0.0857 
     47 S47       -76.6917   31.3680  -74.9057 S.3       11 UNK        -0.2512 
     48 C48       -77.6981   31.8470  -73.4651 C.3       11 UNK         0.0225 
     49 N         -78.1970   27.8243  -76.4824 N.am      5 UNK        -0.4615 
     50 C         -78.1300   26.4936  -76.6076 C.2       4 UNK         0.5053 
     51 O         -77.3054   25.7835  -76.0244 O.2       4 UNK        -0.5105 
     52 CA        -79.1435   25.8542  -77.5656 C.3       4 UNK         0.0263 
     53 CB        -78.7641   26.1461  -79.0279 C.3       4 UNK        -0.1981 
     54 N         -79.1474   24.4078  -77.3626 N.am      4 UNK        -0.4224 
     55 C         -80.2193   23.6422  -77.1299 C.2       3 UNK         0.4895 
     56 O         -81.3742   24.0667  -77.1195 O.2       3 UNK        -0.5091 
     57 CA        -79.9634   22.1532  -76.8230 C.3       3 UNK         0.0250 
     58 CB        -80.5210   21.2778  -77.9576 C.3       3 UNK        -0.1996 
     59 N         -78.5375   21.8373  -76.6492 N.am      3 UNK        -0.4254 
     60 C         -77.7984   21.8584  -75.5271 C.2       2 UNK         0.5004 
     61 O         -76.5925   21.6255  -75.5689 O.2       2 UNK        -0.5226 
     62 CA        -78.4450   22.2018  -74.1713 C.3       2 UNK         0.0269 
     63 CB        -77.5104   21.9251  -72.9758 C.3       2 UNK        -0.1926 
     64 N         -78.8435   23.6081  -74.1501 N.am      2 UNK        -0.4687 
     65 C         -79.9627   24.0651  -73.5748 C.2       1 UNK         0.5165 
     66 O         -80.7675   23.3456  -72.9751 O.2       1 UNK        -0.5079 
     67 H67       -83.8946   26.2299  -72.2099 H         1 UNK         0.0900 
     68 H68       -84.4333   27.1272  -73.6312 H         1 UNK         0.0900 
     69 H69       -83.7254   27.9857  -72.2598 H         1 UNK         0.0900 
     70 H70       -81.9465   25.1383  -72.5974 H         1 UNK         0.2959 
     71 H71       -80.2692   25.7739  -74.7796 H         1 UNK         0.1079 
     72 H72       -79.3120   27.4965  -73.3390 H         1 UNK         0.0837 
     73 H73       -78.1581   26.2281  -73.5160 H         1 UNK         0.0837 
     74 H74       -80.4076   28.2369  -71.1841 H         1 UNK         0.0685 
     75 H75       -79.6415   27.9381  -69.6439 H         1 UNK         0.0685 
     76 H76       -79.4367   29.8840  -72.6675 H         1 UNK         0.1434 
     77 H77       -75.6315   31.6211  -71.7325 H         1 UNK         0.1329 
     78 H78       -77.0705   28.2718  -69.4746 H         1 UNK         0.1335 
     79 H79       -75.0913   29.4150  -68.7530 H         1 UNK         0.0680 
     80 H80       -74.6541   30.9631  -69.4168 H         1 UNK         0.0680 
     81 H81       -73.2754   31.4345  -71.2120 H         1 UNK         0.1032 
     82 H82       -71.8153   30.5381  -71.4484 H         1 UNK         0.1032 
     83 H83       -74.3075   30.2771  -73.2036 H         1 UNK         0.0461 
     84 H84       -72.3730   30.6171  -75.6177 H         1 UNK         0.3453 
     85 H85       -72.2400   32.3568  -75.7106 H         1 UNK         0.3453 
     86 H86       -73.4595   28.5681  -74.2136 H         1 UNK         0.2984 
     87 H87       -71.0730   27.7016  -75.6263 H         1 UNK         0.0554 
     88 H88       -69.7893   25.7298  -74.7457 H         1 UNK         0.0847 
     89 H89       -69.9629   26.3633  -73.1086 H         1 UNK         0.0847 
     90 H90       -69.0573   27.2647  -74.3113 H         1 UNK         0.0847 
     91 H91       -72.8425   26.4226  -75.5297 H         1 UNK         0.3141 
     92 H92       -74.0165   23.9497  -73.5772 H         1 UNK         0.0743 
     93 H93       -76.2748   24.9055  -73.2421 H         1 UNK         0.0784 
     94 H94       -75.1720   25.5570  -72.0458 H         1 UNK         0.0784 
     95 H95       -75.6445   26.5449  -73.4182 H         1 UNK         0.0784 
     96 H96       -75.3482   25.5035  -75.6199 H         1 UNK         0.3213 
     97 H97       -73.4609   24.2195  -78.3559 H         1 UNK         0.0855 
     98 H98       -75.2371   22.5173  -78.0149 H         1 UNK         0.0814 
     99 H99       -75.7417   23.7060  -79.2067 H         1 UNK         0.0814 
    100 H100      -76.3806   23.7680  -77.5628 H         1 UNK         0.0814 
    101 H101      -75.6373   26.0973  -78.1150 H         1 UNK         0.3105 
    102 H102      -73.6192   29.0025  -77.7504 H         1 UNK         0.0547 
    103 H103      -73.4996   28.4826  -80.1916 H         1 UNK         0.0837 
    104 H104      -75.1800   27.9677  -80.1805 H         1 UNK         0.0837 
    105 H105      -74.7641   29.6497  -79.8495 H         1 UNK         0.0837 
    106 H106      -76.4200   28.6905  -78.1302 H         1 UNK         0.3020 
    107 H107      -77.2942   28.3367  -74.6761 H         1 UNK         0.1245 
    108 H108      -78.7629   30.2063  -75.3349 H         1 UNK         0.0781 
    109 H109      -77.8529   30.4797  -76.7876 H         1 UNK         0.0781 
    110 H110      -78.7441   31.9618  -73.7532 H         1 UNK         0.0836 
    111 H111      -77.3716   32.8309  -73.1247 H         1 UNK         0.0836 
    112 H112      -78.9208   28.3146  -76.9883 H         1 UNK         0.3022 
    113 H113      -80.1283   26.2761  -77.3527 H         1 UNK         0.0747 
    114 H114      -79.4770   25.6894  -79.7148 H         1 UNK         0.0793 
    115 H115      -78.7633   27.2169  -79.2352 H         1 UNK         0.0793 
    116 H116      -77.7742   25.7618  -79.2768 H         1 UNK         0.0793 
    117 H117      -78.2348   23.9849  -77.2770 H         1 UNK         0.3047 
    118 H118      -80.5180   21.9084  -75.9165 H         1 UNK         0.0822 
    119 H119      -80.0285   21.4839  -78.9089 H         1 UNK         0.0807 
    120 H120      -81.5886   21.4528  -78.0997 H         1 UNK         0.0807 
    121 H121      -80.3969   20.2171  -77.7381 H         1 UNK         0.0807 
    122 H122      -78.0598   21.5744  -77.4992 H         1 UNK         0.2946 
    123 H123      -79.3148   21.5517  -74.0575 H         1 UNK         0.1144 
    124 H124      -77.2050   20.8783  -72.9539 H         1 UNK         0.0793 
    125 H125      -76.6032   22.5282  -73.0212 H         1 UNK         0.0793 
    126 H126      -78.0054   22.1375  -72.0281 H         1 UNK         0.0793 
    127 H127      -78.2291   24.2503  -74.6376 H         1 UNK         0.2896 
@<TRIPOS>BOND
     1    1    2 1    
     2    1   67 1    
     3    1   68 1    
     4    1   69 1    
     5    2    3 2    
     6    2    4 am   BACKBONE|DICT|INTERRES
     7    4    5 1    
     8    4   70 1    
     9    5    6 1    
    10    5   65 1    
    11    5   71 1    
    12    6    7 1    
    13    6   72 1    
    14    6   73 1    
    15    7    8 1    
    16    8    9 1    
    17    8   74 1    
    18    8   75 1    
    19    9   10 ar   
    20    9   14 ar   
    21   10   11 ar   
    22   10   76 1    
    23   11   12 ar   
    24   11   48 1    
    25   12   13 ar   
    26   12   77 1    
    27   13   14 ar   
    28   13   15 1    
    29   14   78 1    
    30   15   16 1    
    31   15   79 1    
    32   15   80 1    
    33   16   17 1    
    34   17   18 1    
    35   17   81 1    
    36   17   82 1    
    37   18   19 1    
    38   18   22 1    
    39   18   83 1    
    40   19   20 am   BACKBONE|DICT|INTERRES
    41   19   21 2    
    42   20   84 1    
    43   20   85 1    
    44   22   23 am   BACKBONE|DICT|INTERRES
    45   22   86 1    
    46   23   24 2    
    47   23   25 1    
    48   25   26 1    
    49   25   27 1    
    50   25   87 1    
    51   26   88 1    
    52   26   89 1    
    53   26   90 1    
    54   27   28 am   BACKBONE|DICT|INTERRES
    55   27   91 1    
    56   28   29 2    
    57   28   30 1    
    58   30   31 1    
    59   30   32 1    
    60   30   92 1    
    61   31   93 1    
    62   31   94 1    
    63   31   95 1    
    64   32   33 am   BACKBONE|DICT|INTERRES
    65   32   96 1    
    66   33   34 2    
    67   33   35 1    
    68   35   36 1    
    69   35   37 1    
    70   35   97 1    
    71   36   98 1    
    72   36   99 1    
    73   36  100 1    
    74   37   38 am   BACKBONE|DICT|INTERRES
    75   37  101 1    
    76   38   39 2    
    77   38   40 1    
    78   40   41 1    
    79   40   42 1    
    80   40  102 1    
    81   41  103 1    
    82   41  104 1    
    83   41  105 1    
    84   42   43 am   BACKBONE|DICT|INTERRES
    85   42  106 1    
    86   43   44 2    
    87   43   45 1    
    88   45   46 1    
    89   45   49 1    
    90   45  107 1    
    91   46   47 1    
    92   46  108 1    
    93   46  109 1    
    94   47   48 1    
    95   48  110 1    
    96   48  111 1    
    97   49   50 am   BACKBONE|DICT|INTERRES
    98   49  112 1    
    99   50   51 2    
   100   50   52 1    
   101   52   53 1    
   102   52   54 1    
   103   52  113 1    
   104   53  114 1    
   105   53  115 1    
   106   53  116 1    
   107   54   55 am   BACKBONE|DICT|INTERRES
   108   54  117 1    
   109   55   56 2    
   110   55   57 1    
   111   57   58 1    
   112   57   59 1    
   113   57  118 1    
   114   58  119 1    
   115   58  120 1    
   116   58  121 1    
   117   59   60 am   BACKBONE|DICT|INTERRES
   118   59  122 1    
   119   60   61 2    
   120   60   62 1    
   121   62   63 1    
   122   62   64 1    
   123   62  123 1    
   124   63  124 1    
   125   63  125 1    
   126   63  126 1    
   127   64   65 am   BACKBONE|DICT|INTERRES
   128   64  127 1    
   129   65   66 2    
@<TRIPOS>SUBSTRUCTURE
     1 UNK         1 GROUP             0       ****    0 ROOT    
