@<TRIPOS>MOLECULE
3R135
127   129    1
SMALL
USER_CHARGES


@<TRIPOS>ATOM
      1 CA        -85.1906   28.3734  -71.8124 C.3       0 UNK        -0.1998 
      2 C         -84.6755   28.0965  -73.2166 C.2       0 UNK         0.4909 
      3 O         -85.3037   27.3444  -73.9622 O.2       0 UNK        -0.5240 
      4 N         -83.5387   28.7024  -73.5831 N.am      1 UNK        -0.4739 
      5 CA        -82.8623   28.5300  -74.8760 C.3       1 UNK         0.0864 
      6 C6        -81.8117   29.6406  -75.1420 C.3       11 UNK        -0.0881 
      7 S7        -80.7151   29.9895  -73.7222 S.3       11 UNK        -0.2682 
      8 C8        -79.1758   29.1998  -74.2668 C.3       11 UNK         0.0289 
      9 C9        -78.1646   29.1593  -73.1363 C.ar      11 UNK        -0.0687 
     10 C10       -78.0588   28.0165  -72.3429 C.ar      11 UNK        -0.0823 
     11 C11       -77.1365   27.9606  -71.2952 C.ar      11 UNK        -0.0830 
     12 C12       -76.3240   29.0688  -71.0362 C.ar      11 UNK        -0.1021 
     13 C13       -76.4247   30.2225  -71.8202 C.ar      11 UNK        -0.0753 
     14 C14       -77.3461   30.2603  -72.8721 C.ar      11 UNK        -0.0933 
     15 C15       -75.5690   31.4433  -71.5159 C.3       11 UNK         0.0166 
     16 S16       -74.3284   31.7333  -72.8160 S.3       11 UNK        -0.2615 
     17 C17       -72.7518   31.3122  -71.9882 C.3       11 UNK        -0.0865 
     18 CA        -72.2091   29.8844  -72.2937 C.3       10 UNK         0.0862 
     19 C         -72.7930   28.7902  -71.3598 C.2       10 UNK         0.5551 
     20 N         -73.2783   27.6609  -71.8575 N.am      10 UNK        -0.7319 
     21 O         -72.7766   28.9554  -70.1424 O.2       10 UNK        -0.5018 
     22 N         -72.2384   29.5479  -73.7244 N.am      10 UNK        -0.4509 
     23 C         -71.4254   30.0742  -74.6454 C.2       10 UNK         0.4899 
     24 O         -70.5272   30.8798  -74.3921 O.2       10 UNK        -0.4839 
     25 CA        -71.6691   29.6139  -76.0929 C.3       9 UNK         0.0222 
     26 CB        -70.6451   30.1863  -77.0965 C.3       9 UNK        -0.1966 
     27 N         -71.7552   28.1546  -76.2075 N.am      9 UNK        -0.4218 
     28 C         -70.8051   27.2519  -75.9092 C.2       9 UNK         0.5020 
     29 O         -69.6923   27.5443  -75.4688 O.2       9 UNK        -0.5274 
     30 CA        -71.1348   25.7624  -76.1374 C.3       8 UNK         0.0270 
     31 CB        -71.2760   25.0289  -74.7926 C.3       8 UNK        -0.1976 
     32 N         -72.3434   25.5356  -76.9333 N.am      8 UNK        -0.4313 
     33 C         -72.4805   25.8202  -78.2353 C.2       8 UNK         0.5041 
     34 O         -71.5620   26.2206  -78.9509 O.2       8 UNK        -0.5577 
     35 CA        -73.8926   25.6794  -78.8281 C.3       7 UNK         0.0284 
     36 CB        -74.1050   24.2669  -79.3951 C.3       7 UNK        -0.1958 
     37 N         -74.9583   25.9984  -77.8695 N.am      7 UNK        -0.4454 
     38 C         -75.1861   27.2160  -77.3532 C.2       7 UNK         0.5089 
     39 O         -74.4958   28.2047  -77.5984 O.2       7 UNK        -0.5125 
     40 CA        -76.3764   27.3421  -76.3852 C.3       6 UNK         0.0408 
     41 CB        -77.6906   27.3427  -77.1855 C.3       6 UNK        -0.1791 
     42 N         -76.4087   26.2769  -75.3780 N.am      6 UNK        -0.4762 
     43 C         -75.4371   26.0406  -74.4793 C.2       6 UNK         0.5007 
     44 O         -74.4403   26.7557  -74.3462 O.2       6 UNK        -0.5032 
     45 CA        -75.5477   24.7248  -73.6740 C.3       5 UNK         0.0783 
     46 C46       -76.5082   24.8230  -72.4638 C.3       11 UNK        -0.0857 
     47 S47       -75.7365   25.5804  -70.9975 S.3       11 UNK        -0.2512 
     48 C48       -77.0379   26.7168  -70.4248 C.3       11 UNK         0.0225 
     49 N         -75.9323   23.6050  -74.5352 N.am      5 UNK        -0.4615 
     50 C         -75.2339   23.1255  -75.5687 C.2       4 UNK         0.5053 
     51 O         -74.1221   23.5413  -75.8875 O.2       4 UNK        -0.5105 
     52 CA        -75.9132   22.0496  -76.4353 C.3       4 UNK         0.0263 
     53 CB        -75.7867   20.6510  -75.8001 C.3       4 UNK        -0.1981 
     54 N         -77.3039   22.3808  -76.7905 N.am      4 UNK        -0.4224 
     55 C         -78.3729   22.4549  -75.9845 C.2       3 UNK         0.4895 
     56 O         -78.3609   22.1462  -74.7899 O.2       3 UNK        -0.5091 
     57 CA        -79.6630   22.9905  -76.6261 C.3       3 UNK         0.0250 
     58 CB        -80.4115   21.8606  -77.3522 C.3       3 UNK        -0.1996 
     59 N         -80.5613   23.6015  -75.6438 N.am      3 UNK        -0.4254 
     60 C         -80.2960   24.6947  -74.9142 C.2       2 UNK         0.5004 
     61 O         -79.2535   25.3513  -74.9942 O.2       2 UNK        -0.5226 
     62 CA        -81.3795   25.0936  -73.8952 C.3       2 UNK         0.0269 
     63 CB        -80.9142   24.7799  -72.4636 C.3       2 UNK        -0.1926 
     64 N         -81.7954   26.4981  -73.9771 N.am      2 UNK        -0.4687 
     65 C         -82.2881   27.1083  -75.0674 C.2       1 UNK         0.5165 
     66 O         -82.3599   26.5805  -76.1783 O.2       1 UNK        -0.5079 
     67 H67       -85.2545   27.4444  -71.2465 H         1 UNK         0.0900 
     68 H68       -84.5410   29.0584  -71.2675 H         1 UNK         0.0900 
     69 H69       -86.1860   28.8144  -71.8580 H         1 UNK         0.0900 
     70 H70       -83.0633   29.3144  -72.9336 H         1 UNK         0.2959 
     71 H71       -83.6313   28.6363  -75.6452 H         1 UNK         0.1079 
     72 H72       -82.3353   30.5703  -75.3702 H         1 UNK         0.0837 
     73 H73       -81.2206   29.4212  -76.0337 H         1 UNK         0.0837 
     74 H74       -79.3979   28.1850  -74.5969 H         1 UNK         0.0685 
     75 H75       -78.7658   29.7334  -75.1256 H         1 UNK         0.0685 
     76 H76       -78.7038   27.1747  -72.5457 H         1 UNK         0.1434 
     77 H77       -75.6153   29.0324  -70.2200 H         1 UNK         0.1329 
     78 H78       -77.4323   31.1516  -73.4785 H         1 UNK         0.1335 
     79 H79       -76.2150   32.3200  -71.4504 H         1 UNK         0.0680 
     80 H80       -75.0906   31.3484  -70.5403 H         1 UNK         0.0680 
     81 H81       -72.0181   32.0412  -72.3350 H         1 UNK         0.1032 
     82 H82       -72.8253   31.4915  -70.9143 H         1 UNK         0.1032 
     83 H83       -71.1538   29.8917  -72.0135 H         1 UNK         0.0461 
     84 H84       -73.3905   27.4948  -72.8487 H         1 UNK         0.3453 
     85 H85       -73.6604   26.9868  -71.2132 H         1 UNK         0.3453 
     86 H86       -72.9590   28.9019  -74.0133 H         1 UNK         0.2984 
     87 H87       -72.6506   29.9989  -76.3734 H         1 UNK         0.0554 
     88 H88       -70.6632   31.2768  -77.0923 H         1 UNK         0.0847 
     89 H89       -70.8650   29.8627  -78.1139 H         1 UNK         0.0847 
     90 H90       -69.6264   29.8781  -76.8593 H         1 UNK         0.0847 
     91 H91       -72.6396   27.8089  -76.5623 H         1 UNK         0.3141 
     92 H92       -70.2928   25.3253  -76.6779 H         1 UNK         0.0743 
     93 H93       -70.3707   25.1324  -74.1929 H         1 UNK         0.0784 
     94 H94       -72.1033   25.4232  -74.2024 H         1 UNK         0.0784 
     95 H95       -71.4470   23.9621  -74.9380 H         1 UNK         0.0784 
     96 H96       -73.1296   25.1074  -76.4510 H         1 UNK         0.3213 
     97 H97       -73.9719   26.3907  -79.6533 H         1 UNK         0.0855 
     98 H98       -73.9838   23.5008  -78.6298 H         1 UNK         0.0814 
     99 H99       -73.3778   24.0537  -80.1798 H         1 UNK         0.0814 
    100 H100      -75.0959   24.1557  -79.8356 H         1 UNK         0.0814 
    101 H101      -75.5567   25.2404  -77.5804 H         1 UNK         0.3105 
    102 H102      -76.2894   28.2947  -75.8583 H         1 UNK         0.0547 
    103 H103      -78.5578   27.4790  -76.5443 H         1 UNK         0.0837 
    104 H104      -77.7014   28.1526  -77.9162 H         1 UNK         0.0837 
    105 H105      -77.8357   26.4096  -77.7311 H         1 UNK         0.0837 
    106 H106      -77.2386   25.6919  -75.3625 H         1 UNK         0.3020 
    107 H107      -74.5459   24.4952  -73.3037 H         1 UNK         0.1245 
    108 H108      -76.8147   23.8232  -72.1511 H         1 UNK         0.0781 
    109 H109      -77.4330   25.3291  -72.7372 H         1 UNK         0.0781 
    110 H110      -76.8175   27.0090  -69.3970 H         1 UNK         0.0836 
    111 H111      -77.9943   26.1927  -70.3894 H         1 UNK         0.0836 
    112 H112      -76.8469   23.1925  -74.3701 H         1 UNK         0.3022 
    113 H113      -75.3700   22.0187  -77.3805 H         1 UNK         0.0747 
    114 H114      -76.2404   19.8870  -76.4313 H         1 UNK         0.0793 
    115 H115      -74.7381   20.3814  -75.6677 H         1 UNK         0.0793 
    116 H116      -76.2573   20.5974  -74.8182 H         1 UNK         0.0793 
    117 H117      -77.4370   22.6453  -77.7572 H         1 UNK         0.3047 
    118 H118      -79.3952   23.7624  -77.3510 H         1 UNK         0.0822 
    119 H119      -79.7864   21.4029  -78.1202 H         1 UNK         0.0807 
    120 H120      -81.3081   22.2325  -77.8487 H         1 UNK         0.0807 
    121 H121      -80.7119   21.0691  -76.6640 H         1 UNK         0.0807 
    122 H122      -81.4299   23.1143  -75.4806 H         1 UNK         0.2946 
    123 H123      -82.2725   24.4967  -74.0932 H         1 UNK         0.1144 
    124 H124      -81.7048   24.9676  -71.7369 H         1 UNK         0.0793 
    125 H125      -80.0471   25.3740  -72.1785 H         1 UNK         0.0793 
    126 H126      -80.6306   23.7306  -72.3679 H         1 UNK         0.0793 
    127 H127      -81.7734   27.0272  -73.1179 H         1 UNK         0.2896 
@<TRIPOS>BOND
     1    1    2 1    
     2    1   67 1    
     3    1   68 1    
     4    1   69 1    
     5    2    3 2    
     6    2    4 am   BACKBONE|DICT|INTERRES
     7    4    5 1    
     8    4   70 1    
     9    5    6 1    
    10    5   65 1    
    11    5   71 1    
    12    6    7 1    
    13    6   72 1    
    14    6   73 1    
    15    7    8 1    
    16    8    9 1    
    17    8   74 1    
    18    8   75 1    
    19    9   10 ar   
    20    9   14 ar   
    21   10   11 ar   
    22   10   76 1    
    23   11   12 ar   
    24   11   48 1    
    25   12   13 ar   
    26   12   77 1    
    27   13   14 ar   
    28   13   15 1    
    29   14   78 1    
    30   15   16 1    
    31   15   79 1    
    32   15   80 1    
    33   16   17 1    
    34   17   18 1    
    35   17   81 1    
    36   17   82 1    
    37   18   19 1    
    38   18   22 1    
    39   18   83 1    
    40   19   20 am   BACKBONE|DICT|INTERRES
    41   19   21 2    
    42   20   84 1    
    43   20   85 1    
    44   22   23 am   BACKBONE|DICT|INTERRES
    45   22   86 1    
    46   23   24 2    
    47   23   25 1    
    48   25   26 1    
    49   25   27 1    
    50   25   87 1    
    51   26   88 1    
    52   26   89 1    
    53   26   90 1    
    54   27   28 am   BACKBONE|DICT|INTERRES
    55   27   91 1    
    56   28   29 2    
    57   28   30 1    
    58   30   31 1    
    59   30   32 1    
    60   30   92 1    
    61   31   93 1    
    62   31   94 1    
    63   31   95 1    
    64   32   33 am   BACKBONE|DICT|INTERRES
    65   32   96 1    
    66   33   34 2    
    67   33   35 1    
    68   35   36 1    
    69   35   37 1    
    70   35   97 1    
    71   36   98 1    
    72   36   99 1    
    73   36  100 1    
    74   37   38 am   BACKBONE|DICT|INTERRES
    75   37  101 1    
    76   38   39 2    
    77   38   40 1    
    78   40   41 1    
    79   40   42 1    
    80   40  102 1    
    81   41  103 1    
    82   41  104 1    
    83   41  105 1    
    84   42   43 am   BACKBONE|DICT|INTERRES
    85   42  106 1    
    86   43   44 2    
    87   43   45 1    
    88   45   46 1    
    89   45   49 1    
    90   45  107 1    
    91   46   47 1    
    92   46  108 1    
    93   46  109 1    
    94   47   48 1    
    95   48  110 1    
    96   48  111 1    
    97   49   50 am   BACKBONE|DICT|INTERRES
    98   49  112 1    
    99   50   51 2    
   100   50   52 1    
   101   52   53 1    
   102   52   54 1    
   103   52  113 1    
   104   53  114 1    
   105   53  115 1    
   106   53  116 1    
   107   54   55 am   BACKBONE|DICT|INTERRES
   108   54  117 1    
   109   55   56 2    
   110   55   57 1    
   111   57   58 1    
   112   57   59 1    
   113   57  118 1    
   114   58  119 1    
   115   58  120 1    
   116   58  121 1    
   117   59   60 am   BACKBONE|DICT|INTERRES
   118   59  122 1    
   119   60   61 2    
   120   60   62 1    
   121   62   63 1    
   122   62   64 1    
   123   62  123 1    
   124   63  124 1    
   125   63  125 1    
   126   63  126 1    
   127   64   65 am   BACKBONE|DICT|INTERRES
   128   64  127 1    
   129   65   66 2    
@<TRIPOS>SUBSTRUCTURE
     1 UNK         1 GROUP             0       ****    0 ROOT    
