@<TRIPOS>MOLECULE
3R135
127   129    1
SMALL
USER_CHARGES


@<TRIPOS>ATOM
      1 CA        -77.8853   31.3681  -75.8351 C.3       0 UNK        -0.1998 
      2 C         -77.7865   29.9536  -75.2848 C.2       0 UNK         0.4909 
      3 O         -76.7430   29.3154  -75.4214 O.2       0 UNK        -0.5240 
      4 N         -78.8687   29.4672  -74.6642 N.am      1 UNK        -0.4739 
      5 CA        -79.0014   28.1019  -74.1394 C.3       1 UNK         0.0864 
      6 C6        -80.2264   28.0178  -73.1898 C.3       11 UNK        -0.0881 
      7 S7        -80.4335   26.4193  -72.3284 S.3       11 UNK        -0.2682 
      8 C8        -79.9236   26.8146  -70.6267 C.3       11 UNK         0.0289 
      9 C9        -78.4098   26.8696  -70.4854 C.ar      11 UNK        -0.0687 
     10 C10       -77.6887   25.7046  -70.2041 C.ar      11 UNK        -0.0823 
     11 C11       -76.2983   25.7482  -70.0615 C.ar      11 UNK        -0.0830 
     12 C12       -75.6336   26.9724  -70.1836 C.ar      11 UNK        -0.1021 
     13 C13       -76.3414   28.1432  -70.4713 C.ar      11 UNK        -0.0753 
     14 C14       -77.7309   28.0848  -70.6184 C.ar      11 UNK        -0.0933 
     15 C15       -75.6111   29.4729  -70.6071 C.3       11 UNK         0.0166 
     16 S16       -74.3305   29.4221  -71.9011 S.3       11 UNK        -0.2615 
     17 C17       -74.0756   31.2049  -72.2029 C.3       11 UNK        -0.0865 
     18 CA        -74.8914   31.6892  -73.4346 C.3       10 UNK         0.0862 
     19 C         -74.9616   33.2429  -73.5572 C.2       10 UNK         0.5551 
     20 N         -75.0602   33.8054  -74.7554 N.am      10 UNK        -0.7319 
     21 O         -74.9697   33.9496  -72.5522 O.2       10 UNK        -0.5018 
     22 N         -74.5228   30.9600  -74.6630 N.am      10 UNK        -0.4509 
     23 C         -73.3767   31.0737  -75.3442 C.2       10 UNK         0.4899 
     24 O         -72.5009   31.9039  -75.0940 O.2       10 UNK        -0.4839 
     25 CA        -73.1809   30.0564  -76.4832 C.3       9 UNK         0.0222 
     26 CB        -72.1862   30.5480  -77.5555 C.3       9 UNK        -0.1966 
     27 N         -72.7853   28.7369  -75.9738 N.am      9 UNK        -0.4218 
     28 C         -71.7102   28.4307  -75.2262 C.2       9 UNK         0.5020 
     29 O         -70.8566   29.2395  -74.8605 O.2       9 UNK        -0.5274 
     30 CA        -71.5354   26.9557  -74.8291 C.3       8 UNK         0.0270 
     31 CB        -72.1580   26.6873  -73.4485 C.3       8 UNK        -0.1976 
     32 N         -72.0900   26.0306  -75.8232 N.am      8 UNK        -0.4313 
     33 C         -71.4789   25.7282  -76.9804 C.2       8 UNK         0.5041 
     34 O         -70.3878   26.1958  -77.3102 O.2       8 UNK        -0.5577 
     35 CA        -72.1624   24.7262  -77.9317 C.3       7 UNK         0.0284 
     36 CB        -71.4686   23.3560  -77.8528 C.3       7 UNK        -0.1958 
     37 N         -73.5924   24.5468  -77.6809 N.am      7 UNK        -0.4454 
     38 C         -74.5446   25.4358  -77.9922 C.2       7 UNK         0.5089 
     39 O         -74.3278   26.4997  -78.5720 O.2       7 UNK        -0.5125 
     40 CA        -75.9785   25.0902  -77.5472 C.3       6 UNK         0.0408 
     41 CB        -76.7225   24.3523  -78.6714 C.3       6 UNK        -0.1791 
     42 N         -76.0606   24.2951  -76.3145 N.am      6 UNK        -0.4762 
     43 C         -75.5385   24.6353  -75.1276 C.2       6 UNK         0.5007 
     44 O         -74.8291   25.6300  -74.9744 O.2       6 UNK        -0.5032 
     45 CA        -75.8436   23.7123  -73.9251 C.3       5 UNK         0.0783 
     46 C46       -75.1754   24.2262  -72.6203 C.3       11 UNK        -0.0857 
     47 S47       -75.6320   23.2506  -71.1415 S.3       11 UNK        -0.2512 
     48 C48       -75.5025   24.4760  -69.7939 C.3       11 UNK         0.0225 
     49 N         -77.2846   23.4980  -73.7527 N.am      5 UNK        -0.4615 
     50 C         -78.0516   22.6710  -74.4708 C.2       4 UNK         0.5053 
     51 O         -77.6495   22.0535  -75.4580 O.2       4 UNK        -0.5105 
     52 CA        -79.5019   22.4922  -74.0118 C.3       4 UNK         0.0263 
     53 CB        -79.6918   22.6251  -72.4859 C.3       4 UNK        -0.1981 
     54 N         -80.3533   23.4490  -74.7132 N.am      4 UNK        -0.4224 
     55 C         -81.5999   23.1860  -75.1318 C.2       3 UNK         0.4895 
     56 O         -82.1538   22.0970  -74.9716 O.2       3 UNK        -0.5091 
     57 CA        -82.3914   24.3093  -75.8312 C.3       3 UNK         0.0250 
     58 CB        -83.4617   24.8760  -74.8831 C.3       3 UNK        -0.1996 
     59 N         -81.5612   25.4126  -76.3119 N.am      3 UNK        -0.4254 
     60 C         -80.7338   25.3622  -77.3646 C.2       2 UNK         0.5004 
     61 O         -80.6383   24.3914  -78.1151 O.2       2 UNK        -0.5226 
     62 CA        -79.8466   26.5991  -77.6102 C.3       2 UNK         0.0269 
     63 CB        -80.4128   27.4512  -78.7570 C.3       2 UNK        -0.1926 
     64 N         -79.6517   27.4513  -76.4291 N.am      2 UNK        -0.4687 
     65 C         -79.0839   27.0591  -75.2769 C.2       1 UNK         0.5165 
     66 O         -78.6709   25.9161  -75.0897 O.2       1 UNK        -0.5079 
     67 H67       -78.9169   31.6390  -76.0591 H         1 UNK         0.0900 
     68 H68       -77.3092   31.4579  -76.7558 H         1 UNK         0.0900 
     69 H69       -77.4940   32.0848  -75.1149 H         1 UNK         0.0900 
     70 H70       -79.6837   30.0566  -74.5668 H         1 UNK         0.2959 
     71 H71       -78.1004   27.8732  -73.5646 H         1 UNK         0.1079 
     72 H72       -81.1467   28.2146  -73.7429 H         1 UNK         0.0837 
     73 H73       -80.1653   28.8101  -72.4428 H         1 UNK         0.0837 
     74 H74       -80.3769   27.7546  -70.3087 H         1 UNK         0.0685 
     75 H75       -80.3234   26.0491  -69.9600 H         1 UNK         0.0685 
     76 H76       -78.2071   24.7604  -70.1068 H         1 UNK         0.1434 
     77 H77       -74.5584   27.0165  -70.0742 H         1 UNK         0.1329 
     78 H78       -78.2870   28.9868  -70.8330 H         1 UNK         0.1335 
     79 H79       -75.1496   29.7322  -69.6533 H         1 UNK         0.0680 
     80 H80       -76.3192   30.2701  -70.8392 H         1 UNK         0.0680 
     81 H81       -73.0108   31.3877  -72.3556 H         1 UNK         0.1032 
     82 H82       -74.3484   31.7571  -71.3019 H         1 UNK         0.1032 
     83 H83       -75.9274   31.4062  -73.2468 H         1 UNK         0.0461 
     84 H84       -75.0363   33.2388  -75.5872 H         1 UNK         0.3453 
     85 H85       -75.1169   34.8090  -74.8271 H         1 UNK         0.3453 
     86 H86       -75.1917   30.2498  -74.9536 H         1 UNK         0.2984 
     87 H87       -74.1483   29.9235  -76.9708 H         1 UNK         0.0554 
     88 H88       -72.1128   29.8395  -78.3806 H         1 UNK         0.0847 
     89 H89       -71.1843   30.6923  -77.1496 H         1 UNK         0.0847 
     90 H90       -72.5065   31.5029  -77.9738 H         1 UNK         0.0847 
     91 H91       -73.4238   27.9826  -76.1870 H         1 UNK         0.3141 
     92 H92       -70.4633   26.7632  -74.7472 H         1 UNK         0.0743 
     93 H93       -73.2226   26.9211  -73.4282 H         1 UNK         0.0784 
     94 H94       -72.0332   25.6470  -73.1490 H         1 UNK         0.0784 
     95 H95       -71.6834   27.3044  -72.6845 H         1 UNK         0.0784 
     96 H96       -73.0165   25.6601  -75.6283 H         1 UNK         0.3213 
     97 H97       -72.0406   25.1112  -78.9467 H         1 UNK         0.0855 
     98 H98       -71.5601   22.9126  -76.8604 H         1 UNK         0.0814 
     99 H99       -70.4034   23.4447  -78.0720 H         1 UNK         0.0814 
    100 H100      -71.8875   22.6555  -78.5756 H         1 UNK         0.0814 
    101 H101      -73.8734   23.7022  -77.2044 H         1 UNK         0.3105 
    102 H102      -76.4930   26.0331  -77.3514 H         1 UNK         0.0547 
    103 H103      -76.2365   23.4091  -78.9238 H         1 UNK         0.0837 
    104 H104      -77.7523   24.1291  -78.3924 H         1 UNK         0.0837 
    105 H105      -76.7553   24.9558  -79.5795 H         1 UNK         0.0837 
    106 H106      -76.6473   23.4654  -76.3358 H         1 UNK         0.3020 
    107 H107      -75.3912   22.7457  -74.1580 H         1 UNK         0.1245 
    108 H108      -74.0886   24.2047  -72.7160 H         1 UNK         0.0781 
    109 H109      -75.4416   25.2716  -72.4627 H         1 UNK         0.0781 
    110 H110      -75.8575   24.0216  -68.8680 H         1 UNK         0.0836 
    111 H111      -74.4477   24.7058  -69.6352 H         1 UNK         0.0836 
    112 H112      -77.7084   24.0081  -72.9922 H         1 UNK         0.3022 
    113 H113      -79.7812   21.4749  -74.2949 H         1 UNK         0.0747 
    114 H114      -80.7073   22.3564  -72.1946 H         1 UNK         0.0793 
    115 H115      -79.0155   21.9602  -71.9467 H         1 UNK         0.0793 
    116 H116      -79.5085   23.6392  -72.1327 H         1 UNK         0.0793 
    117 H117      -79.9338   24.3547  -74.9072 H         1 UNK         0.3047 
    118 H118      -82.8957   23.8634  -76.6913 H         1 UNK         0.0822 
    119 H119      -84.0808   25.6221  -75.3818 H         1 UNK         0.0807 
    120 H120      -83.0153   25.3413  -74.0031 H         1 UNK         0.0807 
    121 H121      -84.1289   24.0880  -74.5308 H         1 UNK         0.0807 
    122 H122      -81.5692   26.2576  -75.7602 H         1 UNK         0.2946 
    123 H123      -78.8653   26.2306  -77.9112 H         1 UNK         0.1144 
    124 H124      -79.7436   28.2743  -79.0086 H         1 UNK         0.0793 
    125 H125      -81.3865   27.8728  -78.5042 H         1 UNK         0.0793 
    126 H126      -80.5410   26.8539  -79.6610 H         1 UNK         0.0793 
    127 H127      -79.9615   28.4093  -76.5039 H         1 UNK         0.2896 
@<TRIPOS>BOND
     1    1    2 1    
     2    1   67 1    
     3    1   68 1    
     4    1   69 1    
     5    2    3 2    
     6    2    4 am   BACKBONE|DICT|INTERRES
     7    4    5 1    
     8    4   70 1    
     9    5    6 1    
    10    5   65 1    
    11    5   71 1    
    12    6    7 1    
    13    6   72 1    
    14    6   73 1    
    15    7    8 1    
    16    8    9 1    
    17    8   74 1    
    18    8   75 1    
    19    9   10 ar   
    20    9   14 ar   
    21   10   11 ar   
    22   10   76 1    
    23   11   12 ar   
    24   11   48 1    
    25   12   13 ar   
    26   12   77 1    
    27   13   14 ar   
    28   13   15 1    
    29   14   78 1    
    30   15   16 1    
    31   15   79 1    
    32   15   80 1    
    33   16   17 1    
    34   17   18 1    
    35   17   81 1    
    36   17   82 1    
    37   18   19 1    
    38   18   22 1    
    39   18   83 1    
    40   19   20 am   BACKBONE|DICT|INTERRES
    41   19   21 2    
    42   20   84 1    
    43   20   85 1    
    44   22   23 am   BACKBONE|DICT|INTERRES
    45   22   86 1    
    46   23   24 2    
    47   23   25 1    
    48   25   26 1    
    49   25   27 1    
    50   25   87 1    
    51   26   88 1    
    52   26   89 1    
    53   26   90 1    
    54   27   28 am   BACKBONE|DICT|INTERRES
    55   27   91 1    
    56   28   29 2    
    57   28   30 1    
    58   30   31 1    
    59   30   32 1    
    60   30   92 1    
    61   31   93 1    
    62   31   94 1    
    63   31   95 1    
    64   32   33 am   BACKBONE|DICT|INTERRES
    65   32   96 1    
    66   33   34 2    
    67   33   35 1    
    68   35   36 1    
    69   35   37 1    
    70   35   97 1    
    71   36   98 1    
    72   36   99 1    
    73   36  100 1    
    74   37   38 am   BACKBONE|DICT|INTERRES
    75   37  101 1    
    76   38   39 2    
    77   38   40 1    
    78   40   41 1    
    79   40   42 1    
    80   40  102 1    
    81   41  103 1    
    82   41  104 1    
    83   41  105 1    
    84   42   43 am   BACKBONE|DICT|INTERRES
    85   42  106 1    
    86   43   44 2    
    87   43   45 1    
    88   45   46 1    
    89   45   49 1    
    90   45  107 1    
    91   46   47 1    
    92   46  108 1    
    93   46  109 1    
    94   47   48 1    
    95   48  110 1    
    96   48  111 1    
    97   49   50 am   BACKBONE|DICT|INTERRES
    98   49  112 1    
    99   50   51 2    
   100   50   52 1    
   101   52   53 1    
   102   52   54 1    
   103   52  113 1    
   104   53  114 1    
   105   53  115 1    
   106   53  116 1    
   107   54   55 am   BACKBONE|DICT|INTERRES
   108   54  117 1    
   109   55   56 2    
   110   55   57 1    
   111   57   58 1    
   112   57   59 1    
   113   57  118 1    
   114   58  119 1    
   115   58  120 1    
   116   58  121 1    
   117   59   60 am   BACKBONE|DICT|INTERRES
   118   59  122 1    
   119   60   61 2    
   120   60   62 1    
   121   62   63 1    
   122   62   64 1    
   123   62  123 1    
   124   63  124 1    
   125   63  125 1    
   126   63  126 1    
   127   64   65 am   BACKBONE|DICT|INTERRES
   128   64  127 1    
   129   65   66 2    
@<TRIPOS>SUBSTRUCTURE
     1 UNK         1 GROUP             0       ****    0 ROOT    
