@<TRIPOS>MOLECULE
3R135
127   129    1
SMALL
USER_CHARGES


@<TRIPOS>ATOM
      1 CA        -84.9582   26.8417  -70.4468 C.3       0 UNK        -0.1998 
      2 C         -84.7721   26.8902  -71.9557 C.2       0 UNK         0.4909 
      3 O         -85.4649   26.1768  -72.6819 O.2       0 UNK        -0.5240 
      4 N         -83.8436   27.7293  -72.4325 N.am      1 UNK        -0.4739 
      5 CA        -83.4929   27.8878  -73.8502 C.3       1 UNK         0.0864 
      6 C6        -82.6893   29.1896  -74.1130 C.3       11 UNK        -0.0881 
      7 S7        -81.3033   29.4666  -72.9533 S.3       11 UNK        -0.2682 
      8 C8        -79.8804   28.9591  -73.9627 C.3       11 UNK         0.0289 
      9 C9        -78.6069   28.9444  -73.1332 C.ar      11 UNK        -0.0687 
     10 C10       -78.3754   27.9047  -72.2287 C.ar      11 UNK        -0.0823 
     11 C11       -77.2092   27.8775  -71.4571 C.ar      11 UNK        -0.0830 
     12 C12       -76.2652   28.8984  -71.6051 C.ar      11 UNK        -0.1021 
     13 C13       -76.4882   29.9462  -72.5043 C.ar      11 UNK        -0.0753 
     14 C14       -77.6621   29.9656  -73.2637 C.ar      11 UNK        -0.0933 
     15 C15       -75.4708   31.0667  -72.6485 C.3       11 UNK         0.0166 
     16 S16       -74.5130   30.8805  -74.1797 S.3       11 UNK        -0.2615 
     17 C17       -73.3859   32.3146  -74.0812 C.3       11 UNK        -0.0865 
     18 CA        -71.8904   31.9897  -73.7793 C.3       10 UNK         0.0862 
     19 C         -71.5712   31.7233  -72.2745 C.2       10 UNK         0.5551 
     20 N         -70.4966   31.0182  -71.9461 N.am      10 UNK        -0.7319 
     21 O         -72.2711   32.2086  -71.3886 O.2       10 UNK        -0.5018 
     22 N         -71.2818   31.0944  -74.7857 N.am      10 UNK        -0.4509 
     23 C         -71.2971   29.7534  -74.8213 C.2       10 UNK         0.4899 
     24 O         -71.7219   29.0342  -73.9154 O.2       10 UNK        -0.4839 
     25 CA        -70.7732   29.1306  -76.1273 C.3       9 UNK         0.0222 
     26 CB        -69.2983   29.4918  -76.4134 C.3       9 UNK        -0.1966 
     27 N         -71.0221   27.6853  -76.1907 N.am      9 UNK        -0.4218 
     28 C         -70.3607   26.6853  -75.5841 C.2       9 UNK         0.5020 
     29 O         -69.3303   26.8386  -74.9256 O.2       9 UNK        -0.5274 
     30 CA        -70.9307   25.2577  -75.7317 C.3       8 UNK         0.0270 
     31 CB        -71.0964   24.5793  -74.3599 C.3       8 UNK        -0.1976 
     32 N         -72.2112   25.2195  -76.4463 N.am      8 UNK        -0.4313 
     33 C         -72.3342   25.1956  -77.7822 C.2       8 UNK         0.5041 
     34 O         -71.3718   25.1235  -78.5473 O.2       8 UNK        -0.5577 
     35 CA        -73.7497   25.2950  -78.3855 C.3       7 UNK         0.0284 
     36 CB        -74.2136   23.9161  -78.8825 C.3       7 UNK        -0.1958 
     37 N         -74.7658   25.8488  -77.4852 N.am      7 UNK        -0.4454 
     38 C         -74.7490   27.0736  -76.9397 C.2       7 UNK         0.5089 
     39 O         -73.8782   27.9114  -77.1762 O.2       7 UNK        -0.5125 
     40 CA        -75.8554   27.3891  -75.9131 C.3       6 UNK         0.0408 
     41 CB        -77.0943   27.9570  -76.6197 C.3       6 UNK        -0.1791 
     42 N         -76.2422   26.2360  -75.0878 N.am      6 UNK        -0.4762 
     43 C         -75.3974   25.5358  -74.3125 C.2       6 UNK         0.5007 
     44 O         -74.1931   25.7746  -74.2302 O.2       6 UNK        -0.5032 
     45 CA        -75.9699   24.3103  -73.5749 C.3       5 UNK         0.0783 
     46 C46       -76.8000   24.6776  -72.3232 C.3       11 UNK        -0.0857 
     47 S47       -75.8250   25.4948  -71.0162 S.3       11 UNK        -0.2512 
     48 C48       -76.9878   26.7704  -70.4343 C.3       11 UNK         0.0225 
     49 N         -76.7499   23.4994  -74.5083 N.am      5 UNK        -0.4615 
     50 C         -76.2192   22.6435  -75.3918 C.2       4 UNK         0.5053 
     51 O         -75.0211   22.3673  -75.4404 O.2       4 UNK        -0.5105 
     52 CA        -77.1807   21.9915  -76.4027 C.3       4 UNK         0.0263 
     53 CB        -77.6418   20.6165  -75.8936 C.3       4 UNK        -0.1981 
     54 N         -78.3558   22.8146  -76.7040 N.am      4 UNK        -0.4224 
     55 C         -78.3162   23.9934  -77.3418 C.2       3 UNK         0.4895 
     56 O         -77.2861   24.4946  -77.7880 O.2       3 UNK        -0.5091 
     57 CA        -79.6394   24.7688  -77.4554 C.3       3 UNK         0.0250 
     58 CB        -80.3920   24.3661  -78.7331 C.3       3 UNK        -0.1996 
     59 N         -80.5212   24.6090  -76.2939 N.am      3 UNK        -0.4254 
     60 C         -80.2064   24.9538  -75.0377 C.2       2 UNK         0.5004 
     61 O         -79.1147   25.4263  -74.7126 O.2       2 UNK        -0.5226 
     62 CA        -81.2834   24.7118  -73.9652 C.3       2 UNK         0.0269 
     63 CB        -80.6726   24.1080  -72.6880 C.3       2 UNK        -0.1926 
     64 N         -82.0071   25.9358  -73.6149 N.am      2 UNK        -0.4687 
     65 C         -82.7911   26.6455  -74.4410 C.2       1 UNK         0.5165 
     66 O         -82.9972   26.3419  -75.6168 O.2       1 UNK        -0.5079 
     67 H67       -85.9816   27.1102  -70.1861 H         1 UNK         0.0900 
     68 H68       -84.2861   27.5272  -69.9308 H         1 UNK         0.0900 
     69 H69       -84.7650   25.8350  -70.0773 H         1 UNK         0.0900 
     70 H70       -83.3041   28.2982  -71.7940 H         1 UNK         0.2959 
     71 H71       -84.4332   27.9793  -74.3993 H         1 UNK         0.1079 
     72 H72       -82.3322   29.2338  -75.1442 H         1 UNK         0.0837 
     73 H73       -83.3618   30.0425  -74.0092 H         1 UNK         0.0837 
     74 H74       -80.0537   27.9660  -74.3765 H         1 UNK         0.0685 
     75 H75       -79.7809   29.6363  -74.8124 H         1 UNK         0.0685 
     76 H76       -79.1147   27.1233  -72.1225 H         1 UNK         0.1434 
     77 H77       -75.3601   28.8799  -71.0132 H         1 UNK         0.1329 
     78 H78       -77.8350   30.7753  -73.9593 H         1 UNK         0.1335 
     79 H79       -75.9841   32.0294  -72.6534 H         1 UNK         0.0680 
     80 H80       -74.7904   31.0788  -71.7957 H         1 UNK         0.0680 
     81 H81       -73.7755   33.0426  -73.3675 H         1 UNK         0.1032 
     82 H82       -73.4425   32.8198  -75.0463 H         1 UNK         0.1032 
     83 H83       -71.3666   32.9313  -73.9489 H         1 UNK         0.0461 
     84 H84       -70.2836   30.8628  -70.9737 H         1 UNK         0.3453 
     85 H85       -69.9308   30.5953  -72.6643 H         1 UNK         0.3453 
     86 H86       -70.8778   31.5733  -75.5772 H         1 UNK         0.2984 
     87 H87       -71.3766   29.5521  -76.9327 H         1 UNK         0.0554 
     88 H88       -69.1834   30.5579  -76.6099 H         1 UNK         0.0847 
     89 H89       -68.6477   29.2510  -75.5722 H         1 UNK         0.0847 
     90 H90       -68.9225   28.9641  -77.2900 H         1 UNK         0.0847 
     91 H91       -71.8988   27.4465  -76.6415 H         1 UNK         0.3141 
     92 H92       -70.1966   24.6793  -76.2966 H         1 UNK         0.0743 
     93 H93       -70.1297   24.4459  -73.8728 H         1 UNK         0.0784 
     94 H94       -71.7147   25.1745  -73.6875 H         1 UNK         0.0784 
     95 H95       -71.5508   23.5927  -74.4527 H         1 UNK         0.0784 
     96 H96       -73.0438   25.3163  -75.8717 H         1 UNK         0.3213 
     97 H97       -73.6823   25.9632  -79.2465 H         1 UNK         0.0855 
     98 H98       -73.4844   23.4789  -79.5660 H         1 UNK         0.0814 
     99 H99       -75.1580   23.9851  -79.4225 H         1 UNK         0.0814 
    100 H100      -74.3485   23.2161  -78.0572 H         1 UNK         0.0814 
    101 H101      -75.5770   25.2626  -77.3052 H         1 UNK         0.3105 
    102 H102      -75.4705   28.1516  -75.2332 H         1 UNK         0.0547 
    103 H103      -76.8508   28.8834  -77.1412 H         1 UNK         0.0837 
    104 H104      -77.4905   27.2614  -77.3590 H         1 UNK         0.0837 
    105 H105      -77.8888   28.1828  -75.9105 H         1 UNK         0.0837 
    106 H106      -77.2253   25.9793  -75.0852 H         1 UNK         0.3020 
    107 H107      -75.1180   23.7147  -73.2368 H         1 UNK         0.1245 
    108 H108      -77.2311   23.7741  -71.8893 H         1 UNK         0.0781 
    109 H109      -77.6450   25.3026  -72.6026 H         1 UNK         0.0781 
    110 H110      -76.5960   27.2056  -69.5137 H         1 UNK         0.0836 
    111 H111      -77.9342   26.2992  -70.1639 H         1 UNK         0.0836 
    112 H112      -77.7334   23.7251  -74.5754 H         1 UNK         0.3022 
    113 H113      -76.6269   21.8454  -77.3327 H         1 UNK         0.0747 
    114 H114      -78.2583   20.1052  -76.6332 H         1 UNK         0.0793 
    115 H115      -76.7869   19.9712  -75.6861 H         1 UNK         0.0793 
    116 H116      -78.2191   20.6987  -74.9718 H         1 UNK         0.0793 
    117 H117      -79.2490   22.4762  -76.3772 H         1 UNK         0.3047 
    118 H118      -79.3911   25.8291  -77.5285 H         1 UNK         0.0822 
    119 H119      -81.2826   24.9780  -78.8783 H         1 UNK         0.0807 
    120 H120      -80.7022   23.3206  -78.7089 H         1 UNK         0.0807 
    121 H121      -79.7629   24.4994  -79.6145 H         1 UNK         0.0807 
    122 H122      -81.4567   24.2762  -76.4816 H         1 UNK         0.2946 
    123 H123      -82.0070   23.9944  -74.3588 H         1 UNK         0.1144 
    124 H124      -81.4476   23.8217  -71.9768 H         1 UNK         0.0793 
    125 H125      -80.0035   24.8074  -72.1868 H         1 UNK         0.0793 
    126 H126      -80.0959   23.2102  -72.9147 H         1 UNK         0.0793 
    127 H127      -81.8981   26.2732  -72.6700 H         1 UNK         0.2896 
@<TRIPOS>BOND
     1    1    2 1    
     2    1   67 1    
     3    1   68 1    
     4    1   69 1    
     5    2    3 2    
     6    2    4 am   BACKBONE|DICT|INTERRES
     7    4    5 1    
     8    4   70 1    
     9    5    6 1    
    10    5   65 1    
    11    5   71 1    
    12    6    7 1    
    13    6   72 1    
    14    6   73 1    
    15    7    8 1    
    16    8    9 1    
    17    8   74 1    
    18    8   75 1    
    19    9   10 ar   
    20    9   14 ar   
    21   10   11 ar   
    22   10   76 1    
    23   11   12 ar   
    24   11   48 1    
    25   12   13 ar   
    26   12   77 1    
    27   13   14 ar   
    28   13   15 1    
    29   14   78 1    
    30   15   16 1    
    31   15   79 1    
    32   15   80 1    
    33   16   17 1    
    34   17   18 1    
    35   17   81 1    
    36   17   82 1    
    37   18   19 1    
    38   18   22 1    
    39   18   83 1    
    40   19   20 am   BACKBONE|DICT|INTERRES
    41   19   21 2    
    42   20   84 1    
    43   20   85 1    
    44   22   23 am   BACKBONE|DICT|INTERRES
    45   22   86 1    
    46   23   24 2    
    47   23   25 1    
    48   25   26 1    
    49   25   27 1    
    50   25   87 1    
    51   26   88 1    
    52   26   89 1    
    53   26   90 1    
    54   27   28 am   BACKBONE|DICT|INTERRES
    55   27   91 1    
    56   28   29 2    
    57   28   30 1    
    58   30   31 1    
    59   30   32 1    
    60   30   92 1    
    61   31   93 1    
    62   31   94 1    
    63   31   95 1    
    64   32   33 am   BACKBONE|DICT|INTERRES
    65   32   96 1    
    66   33   34 2    
    67   33   35 1    
    68   35   36 1    
    69   35   37 1    
    70   35   97 1    
    71   36   98 1    
    72   36   99 1    
    73   36  100 1    
    74   37   38 am   BACKBONE|DICT|INTERRES
    75   37  101 1    
    76   38   39 2    
    77   38   40 1    
    78   40   41 1    
    79   40   42 1    
    80   40  102 1    
    81   41  103 1    
    82   41  104 1    
    83   41  105 1    
    84   42   43 am   BACKBONE|DICT|INTERRES
    85   42  106 1    
    86   43   44 2    
    87   43   45 1    
    88   45   46 1    
    89   45   49 1    
    90   45  107 1    
    91   46   47 1    
    92   46  108 1    
    93   46  109 1    
    94   47   48 1    
    95   48  110 1    
    96   48  111 1    
    97   49   50 am   BACKBONE|DICT|INTERRES
    98   49  112 1    
    99   50   51 2    
   100   50   52 1    
   101   52   53 1    
   102   52   54 1    
   103   52  113 1    
   104   53  114 1    
   105   53  115 1    
   106   53  116 1    
   107   54   55 am   BACKBONE|DICT|INTERRES
   108   54  117 1    
   109   55   56 2    
   110   55   57 1    
   111   57   58 1    
   112   57   59 1    
   113   57  118 1    
   114   58  119 1    
   115   58  120 1    
   116   58  121 1    
   117   59   60 am   BACKBONE|DICT|INTERRES
   118   59  122 1    
   119   60   61 2    
   120   60   62 1    
   121   62   63 1    
   122   62   64 1    
   123   62  123 1    
   124   63  124 1    
   125   63  125 1    
   126   63  126 1    
   127   64   65 am   BACKBONE|DICT|INTERRES
   128   64  127 1    
   129   65   66 2    
@<TRIPOS>SUBSTRUCTURE
     1 UNK         1 GROUP             0       ****    0 ROOT    
