@<TRIPOS>MOLECULE
3R135
127   129    1
SMALL
USER_CHARGES


@<TRIPOS>ATOM
      1 CA        -78.7543   30.6374  -77.0446 C.3       0 UNK        -0.1998 
      2 C         -79.0068   30.0839  -75.6506 C.2       0 UNK         0.4909 
      3 O         -78.2703   30.4115  -74.7230 O.2       0 UNK        -0.5240 
      4 N         -80.0370   29.2465  -75.5024 N.am      1 UNK        -0.4739 
      5 CA        -80.4125   28.5403  -74.2788 C.3       1 UNK         0.0864 
      6 C6        -81.1819   29.4610  -73.2968 C.3       11 UNK        -0.0881 
      7 S7        -81.4573   28.7260  -71.6482 S.3       11 UNK        -0.2682 
      8 C8        -80.0539   29.3818  -70.6906 C.3       11 UNK         0.0289 
      9 C9        -78.7770   28.5958  -70.9493 C.ar      11 UNK        -0.0687 
     10 C10       -78.6034   27.3364  -70.3667 C.ar      11 UNK        -0.0823 
     11 C11       -77.4297   26.6061  -70.5782 C.ar      11 UNK        -0.0830 
     12 C12       -76.4242   27.1545  -71.3817 C.ar      11 UNK        -0.1021 
     13 C13       -76.5891   28.4055  -71.9782 C.ar      11 UNK        -0.0753 
     14 C14       -77.7634   29.1283  -71.7515 C.ar      11 UNK        -0.0933 
     15 C15       -75.4893   28.9596  -72.8663 C.3       11 UNK         0.0166 
     16 S16       -74.1654   29.7093  -71.8654 S.3       11 UNK        -0.2615 
     17 C17       -74.2809   31.4743  -72.3330 C.3       11 UNK        -0.0865 
     18 CA        -73.1620   31.9163  -73.3148 C.3       10 UNK         0.0862 
     19 C         -71.7889   32.0963  -72.5980 C.2       10 UNK         0.5551 
     20 N         -70.7453   31.3482  -72.9390 N.am      10 UNK        -0.7319 
     21 O         -71.6674   32.9477  -71.7204 O.2       10 UNK        -0.5018 
     22 N         -73.1321   31.0534  -74.5034 N.am      10 UNK        -0.4509 
     23 C         -72.5646   31.3570  -75.6750 C.2       10 UNK         0.4899 
     24 O         -72.1066   32.4684  -75.9451 O.2       10 UNK        -0.4839 
     25 CA        -72.4988   30.2188  -76.7137 C.3       9 UNK         0.0222 
     26 CB        -71.3652   30.4208  -77.7411 C.3       9 UNK        -0.1966 
     27 N         -72.4238   28.8715  -76.1263 N.am      9 UNK        -0.4218 
     28 C         -71.4742   28.3899  -75.3038 C.2       9 UNK         0.5020 
     29 O         -70.5539   29.0763  -74.8567 O.2       9 UNK        -0.5274 
     30 CA        -71.5557   26.9056  -74.8847 C.3       8 UNK         0.0270 
     31 CB        -71.9328   26.7808  -73.3993 C.3       8 UNK        -0.1976 
     32 N         -72.4902   26.1087  -75.6851 N.am      8 UNK        -0.4313 
     33 C         -72.3043   25.7787  -76.9733 C.2       8 UNK         0.5041 
     34 O         -71.2583   25.9978  -77.5853 O.2       8 UNK        -0.5577 
     35 CA        -73.4863   25.1348  -77.7280 C.3       7 UNK         0.0284 
     36 CB        -73.2826   23.6158  -77.8493 C.3       7 UNK        -0.1958 
     37 N         -74.8005   25.3882  -77.1300 N.am      7 UNK        -0.4454 
     38 C         -75.3411   26.5873  -76.8698 C.2       7 UNK         0.5089 
     39 O         -74.8218   27.6566  -77.1884 O.2       7 UNK        -0.5125 
     40 CA        -76.6501   26.5997  -76.0620 C.3       6 UNK         0.0408 
     41 CB        -77.8427   26.7690  -77.0157 C.3       6 UNK        -0.1791 
     42 N         -76.8727   25.4076  -75.2346 N.am      6 UNK        -0.4762 
     43 C         -76.0519   24.8788  -74.3123 C.2       6 UNK         0.5007 
     44 O         -74.9420   25.3423  -74.0448 O.2       6 UNK        -0.5032 
     45 CA        -76.5238   23.5740  -73.6362 C.3       5 UNK         0.0783 
     46 C46       -77.3542   23.8384  -72.3548 C.3       11 UNK        -0.0857 
     47 S47       -76.3030   24.0328  -70.8795 S.3       11 UNK        -0.2512 
     48 C48       -77.2625   25.2440  -69.9072 C.3       11 UNK         0.0225 
     49 N         -77.2906   22.7497  -74.5736 N.am      5 UNK        -0.4615 
     50 C         -76.8036   21.7329  -75.2930 C.2       4 UNK         0.5053 
     51 O         -75.6197   21.3959  -75.2828 O.2       4 UNK        -0.5105 
     52 CA        -77.8033   20.9330  -76.1503 C.3       4 UNK         0.0263 
     53 CB        -78.2068   19.6393  -75.4240 C.3       4 UNK        -0.1981 
     54 N         -79.0159   21.6833  -76.4935 N.am      4 UNK        -0.4224 
     55 C         -79.0752   22.6146  -77.4544 C.2       3 UNK         0.4895 
     56 O         -78.1197   22.9236  -78.1672 O.2       3 UNK        -0.5091 
     57 CA        -80.4210   23.3422  -77.6456 C.3       3 UNK         0.0250 
     58 CB        -81.3344   22.5344  -78.5821 C.3       3 UNK        -0.1996 
     59 N         -81.1640   23.6915  -76.4225 N.am      3 UNK        -0.4254 
     60 C         -80.6560   24.3247  -75.3566 C.2       2 UNK         0.5004 
     61 O         -79.4518   24.4842  -75.1649 O.2       2 UNK        -0.5226 
     62 CA        -81.6342   24.8937  -74.3176 C.3       2 UNK         0.0269 
     63 CB        -81.6903   23.9862  -73.0787 C.3       2 UNK        -0.1926 
     64 N         -81.1849   26.2313  -73.9155 N.am      2 UNK        -0.4687 
     65 C         -81.2146   27.3015  -74.7212 C.2       1 UNK         0.5165 
     66 O         -81.8164   27.3215  -75.8004 O.2       1 UNK        -0.5079 
     67 H67       -78.8465   31.7231  -77.0387 H         1 UNK         0.0900 
     68 H68       -79.4584   30.2399  -77.7753 H         1 UNK         0.0900 
     69 H69       -77.7462   30.3826  -77.3709 H         1 UNK         0.0900 
     70 H70       -80.6076   28.9824  -76.2977 H         1 UNK         0.2959 
     71 H71       -79.4947   28.1870  -73.8037 H         1 UNK         0.1079 
     72 H72       -82.1507   29.7374  -73.7168 H         1 UNK         0.0837 
     73 H73       -80.6424   30.4002  -73.1674 H         1 UNK         0.0837 
     74 H74       -79.9141   30.4419  -70.9078 H         1 UNK         0.0685 
     75 H75       -80.2994   29.3223  -69.6292 H         1 UNK         0.0685 
     76 H76       -79.3867   26.9287  -69.7418 H         1 UNK         0.1434 
     77 H77       -75.5046   26.6110  -71.5503 H         1 UNK         0.1329 
     78 H78       -77.8891   30.1027  -72.2026 H         1 UNK         0.1335 
     79 H79       -75.8984   29.6724  -73.5829 H         1 UNK         0.0680 
     80 H80       -75.0671   28.1515  -73.4647 H         1 UNK         0.0680 
     81 H81       -74.2569   32.0759  -71.4223 H         1 UNK         0.1032 
     82 H82       -75.2575   31.6769  -72.7746 H         1 UNK         0.1032 
     83 H83       -73.4310   32.9157  -73.6621 H         1 UNK         0.0461 
     84 H84       -70.8196   30.6358  -73.6579 H         1 UNK         0.3453 
     85 H85       -69.8673   31.4872  -72.4655 H         1 UNK         0.3453 
     86 H86       -73.4535   30.1085  -74.3586 H         1 UNK         0.2984 
     87 H87       -73.4442   30.2547  -77.2567 H         1 UNK         0.0554 
     88 H88       -71.3489   29.6163  -78.4764 H         1 UNK         0.0847 
     89 H89       -70.3868   30.4555  -77.2605 H         1 UNK         0.0847 
     90 H90       -71.4920   31.3553  -78.2889 H         1 UNK         0.0847 
     91 H91       -73.1669   28.2441  -76.4254 H         1 UNK         0.3141 
     92 H92       -70.5569   26.4840  -75.0156 H         1 UNK         0.0743 
     93 H93       -72.9364   27.1566  -73.2036 H         1 UNK         0.0784 
     94 H94       -71.8969   25.7431  -73.0671 H         1 UNK         0.0784 
     95 H95       -71.2451   27.3465  -72.7690 H         1 UNK         0.0784 
     96 H96       -73.3688   25.8594  -75.2387 H         1 UNK         0.3213 
     97 H97       -73.4981   25.5642  -78.7318 H         1 UNK         0.0855 
     98 H98       -73.2996   23.1273  -76.8738 H         1 UNK         0.0814 
     99 H99       -72.3222   23.3856  -78.3130 H         1 UNK         0.0814 
    100 H100      -74.0560   23.1584  -78.4669 H         1 UNK         0.0814 
    101 H101      -75.3184   24.5778  -76.8217 H         1 UNK         0.3105 
    102 H102      -76.6175   27.4602  -75.3912 H         1 UNK         0.0547 
    103 H103      -77.9362   25.9209  -77.6954 H         1 UNK         0.0837 
    104 H104      -78.7798   26.8584  -76.4691 H         1 UNK         0.0837 
    105 H105      -77.7350   27.6671  -77.6252 H         1 UNK         0.0837 
    106 H106      -77.7925   24.9772  -75.3324 H         1 UNK         0.3020 
    107 H107      -75.6227   23.0238  -73.3542 H         1 UNK         0.1245 
    108 H108      -78.0191   24.6953  -72.4813 H         1 UNK         0.0781 
    109 H109      -78.0099   22.9909  -72.1474 H         1 UNK         0.0781 
    110 H110      -78.2380   24.8080  -69.6856 H         1 UNK         0.0836 
    111 H111      -76.7651   25.3913  -68.9479 H         1 UNK         0.0836 
    112 H112      -78.2557   23.0296  -74.7144 H         1 UNK         0.3022 
    113 H113      -77.2914   20.6561  -77.0746 H         1 UNK         0.0747 
    114 H114      -78.8569   19.0219  -76.0443 H         1 UNK         0.0793 
    115 H115      -77.3294   19.0384  -75.1803 H         1 UNK         0.0793 
    116 H116      -78.7296   19.8460  -74.4892 H         1 UNK         0.0793 
    117 H117      -79.8469   21.4947  -75.9515 H         1 UNK         0.3047 
    118 H118      -80.1906   24.2877  -78.1411 H         1 UNK         0.0822 
    119 H119      -82.2230   23.1021  -78.8591 H         1 UNK         0.0807 
    120 H120      -81.6613   21.6014  -78.1213 H         1 UNK         0.0807 
    121 H121      -80.8178   22.2771  -79.5082 H         1 UNK         0.0807 
    122 H122      -82.1665   23.5787  -76.4738 H         1 UNK         0.2946 
    123 H123      -82.6318   24.9703  -74.7560 H         1 UNK         0.1144 
    124 H124      -82.3762   24.3816  -72.3291 H         1 UNK         0.0793 
    125 H125      -80.7104   23.8771  -72.6114 H         1 UNK         0.0793 
    126 H126      -82.0395   22.9869  -73.3417 H         1 UNK         0.0793 
    127 H127      -80.6736   26.2934  -73.0469 H         1 UNK         0.2896 
@<TRIPOS>BOND
     1    1    2 1    
     2    1   67 1    
     3    1   68 1    
     4    1   69 1    
     5    2    3 2    
     6    2    4 am   BACKBONE|DICT|INTERRES
     7    4    5 1    
     8    4   70 1    
     9    5    6 1    
    10    5   65 1    
    11    5   71 1    
    12    6    7 1    
    13    6   72 1    
    14    6   73 1    
    15    7    8 1    
    16    8    9 1    
    17    8   74 1    
    18    8   75 1    
    19    9   10 ar   
    20    9   14 ar   
    21   10   11 ar   
    22   10   76 1    
    23   11   12 ar   
    24   11   48 1    
    25   12   13 ar   
    26   12   77 1    
    27   13   14 ar   
    28   13   15 1    
    29   14   78 1    
    30   15   16 1    
    31   15   79 1    
    32   15   80 1    
    33   16   17 1    
    34   17   18 1    
    35   17   81 1    
    36   17   82 1    
    37   18   19 1    
    38   18   22 1    
    39   18   83 1    
    40   19   20 am   BACKBONE|DICT|INTERRES
    41   19   21 2    
    42   20   84 1    
    43   20   85 1    
    44   22   23 am   BACKBONE|DICT|INTERRES
    45   22   86 1    
    46   23   24 2    
    47   23   25 1    
    48   25   26 1    
    49   25   27 1    
    50   25   87 1    
    51   26   88 1    
    52   26   89 1    
    53   26   90 1    
    54   27   28 am   BACKBONE|DICT|INTERRES
    55   27   91 1    
    56   28   29 2    
    57   28   30 1    
    58   30   31 1    
    59   30   32 1    
    60   30   92 1    
    61   31   93 1    
    62   31   94 1    
    63   31   95 1    
    64   32   33 am   BACKBONE|DICT|INTERRES
    65   32   96 1    
    66   33   34 2    
    67   33   35 1    
    68   35   36 1    
    69   35   37 1    
    70   35   97 1    
    71   36   98 1    
    72   36   99 1    
    73   36  100 1    
    74   37   38 am   BACKBONE|DICT|INTERRES
    75   37  101 1    
    76   38   39 2    
    77   38   40 1    
    78   40   41 1    
    79   40   42 1    
    80   40  102 1    
    81   41  103 1    
    82   41  104 1    
    83   41  105 1    
    84   42   43 am   BACKBONE|DICT|INTERRES
    85   42  106 1    
    86   43   44 2    
    87   43   45 1    
    88   45   46 1    
    89   45   49 1    
    90   45  107 1    
    91   46   47 1    
    92   46  108 1    
    93   46  109 1    
    94   47   48 1    
    95   48  110 1    
    96   48  111 1    
    97   49   50 am   BACKBONE|DICT|INTERRES
    98   49  112 1    
    99   50   51 2    
   100   50   52 1    
   101   52   53 1    
   102   52   54 1    
   103   52  113 1    
   104   53  114 1    
   105   53  115 1    
   106   53  116 1    
   107   54   55 am   BACKBONE|DICT|INTERRES
   108   54  117 1    
   109   55   56 2    
   110   55   57 1    
   111   57   58 1    
   112   57   59 1    
   113   57  118 1    
   114   58  119 1    
   115   58  120 1    
   116   58  121 1    
   117   59   60 am   BACKBONE|DICT|INTERRES
   118   59  122 1    
   119   60   61 2    
   120   60   62 1    
   121   62   63 1    
   122   62   64 1    
   123   62  123 1    
   124   63  124 1    
   125   63  125 1    
   126   63  126 1    
   127   64   65 am   BACKBONE|DICT|INTERRES
   128   64  127 1    
   129   65   66 2    
@<TRIPOS>SUBSTRUCTURE
     1 UNK         1 GROUP             0       ****    0 ROOT    
