@<TRIPOS>MOLECULE
3R135
127   129    1
SMALL
USER_CHARGES


@<TRIPOS>ATOM
      1 CA        -82.5357   22.6039  -72.1053 C.3       0 UNK        -0.1998 
      2 C         -81.8811   23.8950  -72.5717 C.2       0 UNK         0.4909 
      3 O         -80.7968   23.8391  -73.1502 O.2       0 UNK        -0.5240 
      4 N         -82.5501   25.0350  -72.3319 N.am      1 UNK        -0.4739 
      5 CA        -82.1569   26.4230  -72.6353 C.3       1 UNK         0.0864 
      6 C6        -81.5219   27.1822  -71.4348 C.3       11 UNK        -0.0881 
      7 S7        -80.1243   26.3645  -70.5914 S.3       11 UNK        -0.2682 
      8 C8        -79.1689   27.7951  -69.9904 C.3       11 UNK         0.0289 
      9 C9        -78.1575   28.2945  -71.0145 C.ar      11 UNK        -0.0687 
     10 C10       -78.4980   29.3010  -71.9248 C.ar      11 UNK        -0.0823 
     11 C11       -77.5586   29.7821  -72.8438 C.ar      11 UNK        -0.0830 
     12 C12       -76.2614   29.2595  -72.8280 C.ar      11 UNK        -0.1021 
     13 C13       -75.9148   28.2365  -71.9416 C.ar      11 UNK        -0.0753 
     14 C14       -76.8645   27.7629  -71.0331 C.ar      11 UNK        -0.0933 
     15 C15       -74.5277   27.6147  -71.9988 C.3       11 UNK         0.0166 
     16 S16       -73.4466   28.1425  -70.6348 S.3       11 UNK        -0.2615 
     17 C17       -73.3039   29.9508  -70.8819 C.3       11 UNK        -0.0865 
     18 CA        -72.0663   30.4370  -71.6863 C.3       10 UNK         0.0862 
     19 C         -70.7103   29.9524  -71.0934 C.2       10 UNK         0.5551 
     20 N         -70.3156   30.4836  -69.9439 N.am      10 UNK        -0.7319 
     21 O         -70.0260   29.0936  -71.6482 O.2       10 UNK        -0.5018 
     22 N         -72.2064   30.1751  -73.1274 N.am      10 UNK        -0.4509 
     23 C         -71.5042   30.8069  -74.0777 C.2       10 UNK         0.4899 
     24 O         -70.7140   31.7237  -73.8445 O.2       10 UNK        -0.4839 
     25 CA        -71.7137   30.3275  -75.5257 C.3       9 UNK         0.0222 
     26 CB        -70.8467   31.0986  -76.5400 C.3       9 UNK        -0.1966 
     27 N         -71.4170   28.8985  -75.6386 N.am      9 UNK        -0.4218 
     28 C         -72.3273   27.9234  -75.5507 C.2       9 UNK         0.5020 
     29 O         -73.5265   28.1271  -75.3704 O.2       9 UNK        -0.5274 
     30 CA        -71.7943   26.4895  -75.6095 C.3       8 UNK         0.0270 
     31 CB        -71.4068   26.0019  -74.2018 C.3       8 UNK        -0.1976 
     32 N         -72.8068   25.5950  -76.1695 N.am      8 UNK        -0.4313 
     33 C         -72.5412   24.5480  -76.9605 C.2       8 UNK         0.5041 
     34 O         -71.4048   24.2383  -77.3238 O.2       8 UNK        -0.5577 
     35 CA        -73.7250   23.6803  -77.4211 C.3       7 UNK         0.0284 
     36 CB        -74.1047   22.6626  -76.3332 C.3       7 UNK        -0.1958 
     37 N         -74.9063   24.4525  -77.8093 N.am      7 UNK        -0.4454 
     38 C         -75.0004   25.1943  -78.9221 C.2       7 UNK         0.5089 
     39 O         -74.0922   25.3161  -79.7449 O.2       7 UNK        -0.5125 
     40 CA        -76.3373   25.9167  -79.1669 C.3       6 UNK         0.0408 
     41 CB        -77.3460   24.9812  -79.8515 C.3       6 UNK        -0.1791 
     42 N         -76.9106   26.4420  -77.9273 N.am      6 UNK        -0.4762 
     43 C         -76.4382   27.5183  -77.2825 C.2       6 UNK         0.5007 
     44 O         -75.5778   28.2596  -77.7586 O.2       6 UNK        -0.5032 
     45 CA        -76.9990   27.8077  -75.8729 C.3       5 UNK         0.0783 
     46 C46       -78.1002   28.9029  -75.8888 C.3       11 UNK        -0.0857 
     47 S47       -77.4071   30.5577  -75.5560 S.3       11 UNK        -0.2512 
     48 C48       -77.9566   30.8717  -73.8389 C.3       11 UNK         0.0225 
     49 N         -77.4281   26.5983  -75.1598 N.am      5 UNK        -0.4615 
     50 C         -76.5901   25.6420  -74.7320 C.2       4 UNK         0.5053 
     51 O         -75.3717   25.6747  -74.8912 O.2       4 UNK        -0.5105 
     52 CA        -77.2125   24.4092  -74.0596 C.3       4 UNK         0.0263 
     53 CB        -77.5195   24.6914  -72.5857 C.3       4 UNK        -0.1981 
     54 N         -78.4258   23.9606  -74.7401 N.am      4 UNK        -0.4224 
     55 C         -78.4486   23.4728  -75.9879 C.2       3 UNK         0.4895 
     56 O         -77.4416   23.2970  -76.6741 O.2       3 UNK        -0.5091 
     57 CA        -79.8315   23.1913  -76.5919 C.3       3 UNK         0.0250 
     58 CB        -80.4107   21.8677  -76.0668 C.3       3 UNK        -0.1996 
     59 N         -80.7674   24.2884  -76.3364 N.am      3 UNK        -0.4254 
     60 C         -80.6558   25.5101  -76.8774 C.2       2 UNK         0.5004 
     61 O         -79.7762   25.8251  -77.6769 O.2       2 UNK        -0.5226 
     62 CA        -81.6837   26.5682  -76.4504 C.3       2 UNK         0.0269 
     63 CB        -82.8795   26.5760  -77.4159 C.3       2 UNK        -0.1926 
     64 N         -82.1670   26.3969  -75.0780 N.am      2 UNK        -0.4687 
     65 C         -81.4222   26.6062  -73.9827 C.2       1 UNK         0.5165 
     66 O         -80.2281   26.9053  -74.0215 O.2       1 UNK        -0.5079 
     67 H67       -82.7023   21.9410  -72.9538 H         1 UNK         0.0900 
     68 H68       -81.8854   22.0925  -71.3961 H         1 UNK         0.0900 
     69 H69       -83.4945   22.7821  -71.6190 H         1 UNK         0.0900 
     70 H70       -83.4420   24.9573  -71.8636 H         1 UNK         0.2959 
     71 H71       -83.1092   26.9313  -72.7983 H         1 UNK         0.1079 
     72 H72       -81.2250   28.1837  -71.7466 H         1 UNK         0.0837 
     73 H73       -82.2891   27.3396  -70.6754 H         1 UNK         0.0837 
     74 H74       -79.8459   28.5989  -69.6974 H         1 UNK         0.0685 
     75 H75       -78.6460   27.5000  -69.0794 H         1 UNK         0.0685 
     76 H76       -79.4968   29.7131  -71.9158 H         1 UNK         0.1434 
     77 H77       -75.5265   29.6294  -73.5299 H         1 UNK         0.1329 
     78 H78       -76.5968   26.9755  -70.3420 H         1 UNK         0.1335 
     79 H79       -74.0427   27.8465  -72.9432 H         1 UNK         0.0680 
     80 H80       -74.6202   26.5281  -71.9731 H         1 UNK         0.0680 
     81 H81       -74.2156   30.3413  -71.3328 H         1 UNK         0.1032 
     82 H82       -73.2793   30.4000  -69.8877 H         1 UNK         0.1032 
     83 H83       -72.0568   31.5247  -71.5872 H         1 UNK         0.0461 
     84 H84       -70.8658   31.1863  -69.4754 H         1 UNK         0.3453 
     85 H85       -69.4452   30.1775  -69.5377 H         1 UNK         0.3453 
     86 H86       -72.7999   29.4034  -73.3957 H         1 UNK         0.2984 
     87 H87       -72.7591   30.5159  -75.7802 H         1 UNK         0.0554 
     88 H88       -71.0645   32.1670  -76.5077 H         1 UNK         0.0847 
     89 H89       -71.0376   30.7630  -77.5595 H         1 UNK         0.0847 
     90 H90       -69.7814   30.9763  -76.3405 H         1 UNK         0.0847 
     91 H91       -70.4416   28.6488  -75.7247 H         1 UNK         0.3141 
     92 H92       -70.9073   26.4886  -76.2469 H         1 UNK         0.0743 
     93 H93       -70.6747   26.6658  -73.7395 H         1 UNK         0.0784 
     94 H94       -72.2735   25.9613  -73.5404 H         1 UNK         0.0784 
     95 H95       -70.9659   25.0055  -74.2357 H         1 UNK         0.0784 
     96 H96       -73.7681   25.7933  -75.8890 H         1 UNK         0.3213 
     97 H97       -73.3961   23.1194  -78.2987 H         1 UNK         0.0855 
     98 H98       -74.4456   23.1536  -75.4218 H         1 UNK         0.0814 
     99 H99       -73.2494   22.0404  -76.0667 H         1 UNK         0.0814 
    100 H100      -74.8981   21.9960  -76.6717 H         1 UNK         0.0814 
    101 H101      -75.7231   24.3686  -77.2134 H         1 UNK         0.3105 
    102 H102      -76.1478   26.7533  -79.8428 H         1 UNK         0.0547 
    103 H103      -78.2743   25.5031  -80.0843 H         1 UNK         0.0837 
    104 H104      -76.9457   24.5963  -80.7902 H         1 UNK         0.0837 
    105 H105      -77.5945   24.1231  -79.2268 H         1 UNK         0.0837 
    106 H106      -77.6933   25.9342  -77.5286 H         1 UNK         0.3020 
    107 H107      -76.1443   28.1818  -75.3083 H         1 UNK         0.1245 
    108 H108      -78.8574   28.7066  -75.1313 H         1 UNK         0.0781 
    109 H109      -78.6434   28.9224  -76.8357 H         1 UNK         0.0781 
    110 H110      -79.0397   31.0036  -73.8476 H         1 UNK         0.0836 
    111 H111      -77.5350   31.8203  -73.5045 H         1 UNK         0.0836 
    112 H112      -78.4139   26.5272  -74.9282 H         1 UNK         0.3022 
    113 H113      -76.4863   23.5954  -74.1046 H         1 UNK         0.0747 
    114 H114      -77.9777   23.8315  -72.0970 H         1 UNK         0.0793 
    115 H115      -76.6103   24.9371  -72.0369 H         1 UNK         0.0793 
    116 H116      -78.2014   25.5353  -72.4887 H         1 UNK         0.0793 
    117 H117      -79.3027   24.0535  -74.2278 H         1 UNK         0.3047 
    118 H118      -79.7074   23.1001  -77.6734 H         1 UNK         0.0822 
    119 H119      -79.7349   21.0381  -76.2790 H         1 UNK         0.0807 
    120 H120      -81.3647   21.6367  -76.5409 H         1 UNK         0.0807 
    121 H121      -80.5685   21.8895  -74.9882 H         1 UNK         0.0807 
    122 H122      -81.4841   24.1315  -75.6425 H         1 UNK         0.2946 
    123 H123      -81.1875   27.5397  -76.5137 H         1 UNK         0.1144 
    124 H124      -83.5739   27.3832  -77.1820 H         1 UNK         0.0793 
    125 H125      -83.4319   25.6361  -77.3844 H         1 UNK         0.0793 
    126 H126      -82.5482   26.7248  -78.4449 H         1 UNK         0.0793 
    127 H127      -83.1334   26.1249  -74.9657 H         1 UNK         0.2896 
@<TRIPOS>BOND
     1    1    2 1    
     2    1   67 1    
     3    1   68 1    
     4    1   69 1    
     5    2    3 2    
     6    2    4 am   BACKBONE|DICT|INTERRES
     7    4    5 1    
     8    4   70 1    
     9    5    6 1    
    10    5   65 1    
    11    5   71 1    
    12    6    7 1    
    13    6   72 1    
    14    6   73 1    
    15    7    8 1    
    16    8    9 1    
    17    8   74 1    
    18    8   75 1    
    19    9   10 ar   
    20    9   14 ar   
    21   10   11 ar   
    22   10   76 1    
    23   11   12 ar   
    24   11   48 1    
    25   12   13 ar   
    26   12   77 1    
    27   13   14 ar   
    28   13   15 1    
    29   14   78 1    
    30   15   16 1    
    31   15   79 1    
    32   15   80 1    
    33   16   17 1    
    34   17   18 1    
    35   17   81 1    
    36   17   82 1    
    37   18   19 1    
    38   18   22 1    
    39   18   83 1    
    40   19   20 am   BACKBONE|DICT|INTERRES
    41   19   21 2    
    42   20   84 1    
    43   20   85 1    
    44   22   23 am   BACKBONE|DICT|INTERRES
    45   22   86 1    
    46   23   24 2    
    47   23   25 1    
    48   25   26 1    
    49   25   27 1    
    50   25   87 1    
    51   26   88 1    
    52   26   89 1    
    53   26   90 1    
    54   27   28 am   BACKBONE|DICT|INTERRES
    55   27   91 1    
    56   28   29 2    
    57   28   30 1    
    58   30   31 1    
    59   30   32 1    
    60   30   92 1    
    61   31   93 1    
    62   31   94 1    
    63   31   95 1    
    64   32   33 am   BACKBONE|DICT|INTERRES
    65   32   96 1    
    66   33   34 2    
    67   33   35 1    
    68   35   36 1    
    69   35   37 1    
    70   35   97 1    
    71   36   98 1    
    72   36   99 1    
    73   36  100 1    
    74   37   38 am   BACKBONE|DICT|INTERRES
    75   37  101 1    
    76   38   39 2    
    77   38   40 1    
    78   40   41 1    
    79   40   42 1    
    80   40  102 1    
    81   41  103 1    
    82   41  104 1    
    83   41  105 1    
    84   42   43 am   BACKBONE|DICT|INTERRES
    85   42  106 1    
    86   43   44 2    
    87   43   45 1    
    88   45   46 1    
    89   45   49 1    
    90   45  107 1    
    91   46   47 1    
    92   46  108 1    
    93   46  109 1    
    94   47   48 1    
    95   48  110 1    
    96   48  111 1    
    97   49   50 am   BACKBONE|DICT|INTERRES
    98   49  112 1    
    99   50   51 2    
   100   50   52 1    
   101   52   53 1    
   102   52   54 1    
   103   52  113 1    
   104   53  114 1    
   105   53  115 1    
   106   53  116 1    
   107   54   55 am   BACKBONE|DICT|INTERRES
   108   54  117 1    
   109   55   56 2    
   110   55   57 1    
   111   57   58 1    
   112   57   59 1    
   113   57  118 1    
   114   58  119 1    
   115   58  120 1    
   116   58  121 1    
   117   59   60 am   BACKBONE|DICT|INTERRES
   118   59  122 1    
   119   60   61 2    
   120   60   62 1    
   121   62   63 1    
   122   62   64 1    
   123   62  123 1    
   124   63  124 1    
   125   63  125 1    
   126   63  126 1    
   127   64   65 am   BACKBONE|DICT|INTERRES
   128   64  127 1    
   129   65   66 2    
@<TRIPOS>SUBSTRUCTURE
     1 UNK         1 GROUP             0       ****    0 ROOT    
