@<TRIPOS>MOLECULE
3R135
127   129    1
SMALL
USER_CHARGES


@<TRIPOS>ATOM
      1 CA        -84.4155   25.6254  -69.9921 C.3       0 UNK        -0.1998 
      2 C         -84.2482   26.2306  -71.3779 C.2       0 UNK         0.4909 
      3 O         -85.2418   26.4728  -72.0647 O.2       0 UNK        -0.5240 
      4 N         -82.9995   26.4860  -71.7873 N.am      1 UNK        -0.4739 
      5 CA        -82.6426   27.0118  -73.1102 C.3       1 UNK         0.0864 
      6 C6        -81.1860   27.5368  -73.1471 C.3       11 UNK        -0.0881 
      7 S7        -80.9190   28.9195  -71.9847 S.3       11 UNK        -0.2682 
      8 C8        -79.2682   28.5272  -71.2994 C.3       11 UNK         0.0289 
      9 C9        -78.0746   28.7333  -72.2389 C.ar      11 UNK        -0.0687 
     10 C10       -78.2105   29.1422  -73.5729 C.ar      11 UNK        -0.0823 
     11 C11       -77.0928   29.2749  -74.3999 C.ar      11 UNK        -0.0830 
     12 C12       -75.8177   29.0480  -73.8778 C.ar      11 UNK        -0.1021 
     13 C13       -75.6600   28.6623  -72.5448 C.ar      11 UNK        -0.0753 
     14 C14       -76.7896   28.4957  -71.7372 C.ar      11 UNK        -0.0933 
     15 C15       -74.2680   28.4305  -71.9813 C.3       11 UNK         0.0166 
     16 S16       -73.6721   29.9166  -71.1210 S.3       11 UNK        -0.2615 
     17 C17       -71.8733   29.6116  -71.0630 C.3       11 UNK        -0.0865 
     18 CA        -71.1143   30.4428  -72.1335 C.3       10 UNK         0.0862 
     19 C         -69.5734   30.4340  -71.9028 C.2       10 UNK         0.5551 
     20 N         -68.7400   30.2383  -72.9184 N.am      10 UNK        -0.7319 
     21 O         -69.1189   30.6236  -70.7772 O.2       10 UNK        -0.5018 
     22 N         -71.5031   30.0410  -73.4949 N.am      10 UNK        -0.4509 
     23 C         -71.7306   30.8740  -74.5166 C.2       10 UNK         0.4899 
     24 O         -71.7088   32.1023  -74.4224 O.2       10 UNK        -0.4839 
     25 CA        -72.0161   30.2056  -75.8781 C.3       9 UNK         0.0222 
     26 CB        -71.8530   31.1755  -77.0672 C.3       9 UNK        -0.1966 
     27 N         -71.2366   28.9788  -76.1035 N.am      9 UNK        -0.4218 
     28 C         -69.8965   28.8594  -76.0977 C.2       9 UNK         0.5020 
     29 O         -69.1318   29.7936  -75.8536 O.2       9 UNK        -0.5274 
     30 CA        -69.2868   27.4671  -76.3593 C.3       8 UNK         0.0270 
     31 CB        -68.7042   26.8904  -75.0573 C.3       8 UNK        -0.1976 
     32 N         -70.2301   26.4998  -76.9220 N.am      8 UNK        -0.4313 
     33 C         -70.7390   26.5398  -78.1608 C.2       8 UNK         0.5041 
     34 O         -70.3805   27.3437  -79.0220 O.2       8 UNK        -0.5577 
     35 CA        -71.8596   25.5325  -78.4866 C.3       7 UNK         0.0284 
     36 CB        -71.3052   24.3650  -79.3196 C.3       7 UNK        -0.1958 
     37 N         -72.5637   24.9959  -77.3121 N.am      7 UNK        -0.4454 
     38 C         -73.2553   25.7215  -76.4227 C.2       7 UNK         0.5089 
     39 O         -73.3280   26.9526  -76.4447 O.2       7 UNK        -0.5125 
     40 CA        -73.9049   24.9477  -75.2676 C.3       6 UNK         0.0408 
     41 CB        -73.0226   25.0259  -74.0112 C.3       6 UNK        -0.1791 
     42 N         -75.2229   25.4996  -74.9641 N.am      6 UNK        -0.4762 
     43 C         -76.3329   25.2332  -75.6643 C.2       6 UNK         0.5007 
     44 O         -76.3811   24.4268  -76.5965 O.2       6 UNK        -0.5032 
     45 CA        -77.6110   25.9877  -75.2423 C.3       5 UNK         0.0783 
     46 C46       -78.1451   26.9364  -76.3505 C.3       11 UNK        -0.0857 
     47 S47       -76.9316   28.1784  -76.9349 S.3       11 UNK        -0.2512 
     48 C48       -77.2709   29.6177  -75.8703 C.3       11 UNK         0.0225 
     49 N         -78.6297   25.0284  -74.8062 N.am      5 UNK        -0.4615 
     50 C         -78.5303   24.2922  -73.6866 C.2       4 UNK         0.5053 
     51 O         -77.6323   24.4490  -72.8589 O.2       4 UNK        -0.5105 
     52 CA        -79.5877   23.2031  -73.4168 C.3       4 UNK         0.0263 
     53 CB        -80.3821   23.5120  -72.1362 C.3       4 UNK        -0.1981 
     54 N         -80.5132   22.9935  -74.5332 N.am      4 UNK        -0.4224 
     55 C         -80.2146   22.2880  -75.6358 C.2       3 UNK         0.4895 
     56 O         -79.1533   21.6819  -75.7852 O.2       3 UNK        -0.5091 
     57 CA        -81.2525   22.2501  -76.7759 C.3       3 UNK         0.0250 
     58 CB        -81.9920   20.9020  -76.7832 C.3       3 UNK        -0.1996 
     59 N         -82.2389   23.3340  -76.7431 N.am      3 UNK        -0.4254 
     60 C         -81.9631   24.6414  -76.8452 C.2       2 UNK         0.5004 
     61 O         -80.8249   25.0886  -76.9907 O.2       2 UNK        -0.5226 
     62 CA        -83.1384   25.6270  -76.6904 C.3       2 UNK         0.0269 
     63 CB        -84.5352   24.9659  -76.7504 C.3       2 UNK        -0.1926 
     64 N         -83.0046   26.4256  -75.4641 N.am      2 UNK        -0.4687 
     65 C         -82.8555   25.9556  -74.2153 C.2       1 UNK         0.5165 
     66 O         -82.8323   24.7532  -73.9349 O.2       1 UNK        -0.5079 
     67 H67       -85.0230   26.2796  -69.3673 H         1 UNK         0.0900 
     68 H68       -84.9156   24.6599  -70.0632 H         1 UNK         0.0900 
     69 H69       -83.4576   25.4748  -69.4945 H         1 UNK         0.0900 
     70 H70       -82.2239   26.2715  -71.1787 H         1 UNK         0.2959 
     71 H71       -83.3146   27.8463  -73.3247 H         1 UNK         0.1079 
     72 H72       -80.9376   27.8937  -74.1478 H         1 UNK         0.0837 
     73 H73       -80.4794   26.7339  -72.9310 H         1 UNK         0.0837 
     74 H74       -79.1206   29.1534  -70.4184 H         1 UNK         0.0685 
     75 H75       -79.2694   27.4956  -70.9442 H         1 UNK         0.0685 
     76 H76       -79.1837   29.3419  -73.9928 H         1 UNK         0.1434 
     77 H77       -74.9514   29.1566  -74.5160 H         1 UNK         0.1329 
     78 H78       -76.6649   28.1898  -70.7072 H         1 UNK         0.1335 
     79 H79       -73.5807   28.1737  -72.7877 H         1 UNK         0.0680 
     80 H80       -74.2716   27.5847  -71.2921 H         1 UNK         0.0680 
     81 H81       -71.6628   28.5463  -71.1712 H         1 UNK         0.1032 
     82 H82       -71.5395   29.8816  -70.0593 H         1 UNK         0.1032 
     83 H83       -71.4041   31.4845  -71.9837 H         1 UNK         0.0461 
     84 H84       -67.7484   30.2451  -72.7413 H         1 UNK         0.3453 
     85 H85       -69.0769   30.1322  -73.8686 H         1 UNK         0.3453 
     86 H86       -71.5078   29.0498  -73.6789 H         1 UNK         0.2984 
     87 H87       -73.0616   29.8963  -75.8505 H         1 UNK         0.0554 
     88 H88       -72.5272   32.0278  -76.9740 H         1 UNK         0.0847 
     89 H89       -72.0829   30.6845  -78.0128 H         1 UNK         0.0847 
     90 H90       -70.8378   31.5687  -77.1315 H         1 UNK         0.0847 
     91 H91       -71.7970   28.1519  -76.2959 H         1 UNK         0.3141 
     92 H92       -68.4709   27.6002  -77.0729 H         1 UNK         0.0743 
     93 H93       -69.4760   26.7302  -74.3033 H         1 UNK         0.0784 
     94 H94       -68.2025   25.9387  -75.2336 H         1 UNK         0.0784 
     95 H95       -67.9646   27.5667  -74.6258 H         1 UNK         0.0784 
     96 H96       -70.5727   25.7844  -76.2983 H         1 UNK         0.3213 
     97 H97       -72.5970   26.0646  -79.0916 H         1 UNK         0.0855 
     98 H98       -70.5808   23.7749  -78.7568 H         1 UNK         0.0814 
     99 H99       -70.8013   24.7295  -80.2161 H         1 UNK         0.0814 
    100 H100      -72.1015   23.6973  -79.6492 H         1 UNK         0.0814 
    101 H101      -72.5466   23.9915  -77.2015 H         1 UNK         0.3105 
    102 H102      -74.0152   23.8979  -75.5484 H         1 UNK         0.0547 
    103 H103      -73.4814   24.5042  -73.1710 H         1 UNK         0.0837 
    104 H104      -72.8389   26.0562  -73.7060 H         1 UNK         0.0837 
    105 H105      -72.0515   24.5613  -74.1860 H         1 UNK         0.0837 
    106 H106      -75.2611   26.1972  -74.2353 H         1 UNK         0.3020 
    107 H107      -77.3674   26.5954  -74.3709 H         1 UNK         0.1245 
    108 H108      -79.0416   27.4518  -76.0031 H         1 UNK         0.0781 
    109 H109      -78.4571   26.3534  -77.2186 H         1 UNK         0.0781 
    110 H110      -78.2786   29.9849  -76.0708 H         1 UNK         0.0836 
    111 H111      -76.5904   30.4271  -76.1390 H         1 UNK         0.0836 
    112 H112      -79.3769   24.8395  -75.4650 H         1 UNK         0.3022 
    113 H113      -79.0435   22.2718  -73.2453 H         1 UNK         0.0747 
    114 H114      -81.1351   22.7486  -71.9400 H         1 UNK         0.0793 
    115 H115      -79.7226   23.5461  -71.2681 H         1 UNK         0.0793 
    116 H116      -80.8871   24.4742  -72.1934 H         1 UNK         0.0793 
    117 H117      -81.4080   23.4726  -74.4753 H         1 UNK         0.3047 
    118 H118      -80.6986   22.3418  -77.7126 H         1 UNK         0.0822 
    119 H119      -82.6595   20.8186  -77.6411 H         1 UNK         0.0807 
    120 H120      -82.5857   20.7630  -75.8787 H         1 UNK         0.0807 
    121 H121      -81.2885   20.0701  -76.8419 H         1 UNK         0.0807 
    122 H122      -83.1988   23.0652  -76.5820 H         1 UNK         0.2946 
    123 H123      -83.0618   26.3180  -77.5317 H         1 UNK         0.1144 
    124 H124      -84.7134   24.2898  -75.9133 H         1 UNK         0.0793 
    125 H125      -84.6659   24.3992  -77.6735 H         1 UNK         0.0793 
    126 H126      -85.3215   25.7206  -76.7299 H         1 UNK         0.0793 
    127 H127      -82.9739   27.4261  -75.6055 H         1 UNK         0.2896 
@<TRIPOS>BOND
     1    1    2 1    
     2    1   67 1    
     3    1   68 1    
     4    1   69 1    
     5    2    3 2    
     6    2    4 am   BACKBONE|DICT|INTERRES
     7    4    5 1    
     8    4   70 1    
     9    5    6 1    
    10    5   65 1    
    11    5   71 1    
    12    6    7 1    
    13    6   72 1    
    14    6   73 1    
    15    7    8 1    
    16    8    9 1    
    17    8   74 1    
    18    8   75 1    
    19    9   10 ar   
    20    9   14 ar   
    21   10   11 ar   
    22   10   76 1    
    23   11   12 ar   
    24   11   48 1    
    25   12   13 ar   
    26   12   77 1    
    27   13   14 ar   
    28   13   15 1    
    29   14   78 1    
    30   15   16 1    
    31   15   79 1    
    32   15   80 1    
    33   16   17 1    
    34   17   18 1    
    35   17   81 1    
    36   17   82 1    
    37   18   19 1    
    38   18   22 1    
    39   18   83 1    
    40   19   20 am   BACKBONE|DICT|INTERRES
    41   19   21 2    
    42   20   84 1    
    43   20   85 1    
    44   22   23 am   BACKBONE|DICT|INTERRES
    45   22   86 1    
    46   23   24 2    
    47   23   25 1    
    48   25   26 1    
    49   25   27 1    
    50   25   87 1    
    51   26   88 1    
    52   26   89 1    
    53   26   90 1    
    54   27   28 am   BACKBONE|DICT|INTERRES
    55   27   91 1    
    56   28   29 2    
    57   28   30 1    
    58   30   31 1    
    59   30   32 1    
    60   30   92 1    
    61   31   93 1    
    62   31   94 1    
    63   31   95 1    
    64   32   33 am   BACKBONE|DICT|INTERRES
    65   32   96 1    
    66   33   34 2    
    67   33   35 1    
    68   35   36 1    
    69   35   37 1    
    70   35   97 1    
    71   36   98 1    
    72   36   99 1    
    73   36  100 1    
    74   37   38 am   BACKBONE|DICT|INTERRES
    75   37  101 1    
    76   38   39 2    
    77   38   40 1    
    78   40   41 1    
    79   40   42 1    
    80   40  102 1    
    81   41  103 1    
    82   41  104 1    
    83   41  105 1    
    84   42   43 am   BACKBONE|DICT|INTERRES
    85   42  106 1    
    86   43   44 2    
    87   43   45 1    
    88   45   46 1    
    89   45   49 1    
    90   45  107 1    
    91   46   47 1    
    92   46  108 1    
    93   46  109 1    
    94   47   48 1    
    95   48  110 1    
    96   48  111 1    
    97   49   50 am   BACKBONE|DICT|INTERRES
    98   49  112 1    
    99   50   51 2    
   100   50   52 1    
   101   52   53 1    
   102   52   54 1    
   103   52  113 1    
   104   53  114 1    
   105   53  115 1    
   106   53  116 1    
   107   54   55 am   BACKBONE|DICT|INTERRES
   108   54  117 1    
   109   55   56 2    
   110   55   57 1    
   111   57   58 1    
   112   57   59 1    
   113   57  118 1    
   114   58  119 1    
   115   58  120 1    
   116   58  121 1    
   117   59   60 am   BACKBONE|DICT|INTERRES
   118   59  122 1    
   119   60   61 2    
   120   60   62 1    
   121   62   63 1    
   122   62   64 1    
   123   62  123 1    
   124   63  124 1    
   125   63  125 1    
   126   63  126 1    
   127   64   65 am   BACKBONE|DICT|INTERRES
   128   64  127 1    
   129   65   66 2    
@<TRIPOS>SUBSTRUCTURE
     1 UNK         1 GROUP             0       ****    0 ROOT    
