@<TRIPOS>MOLECULE
3R135
127   129    1
SMALL
USER_CHARGES


@<TRIPOS>ATOM
      1 CA        -78.8481   31.0290  -75.5081 C.3       0 UNK        -0.1998 
      2 C         -79.9122   30.1356  -74.8881 C.2       0 UNK         0.4909 
      3 O         -81.0884   30.4989  -74.8801 O.2       0 UNK        -0.5240 
      4 N         -79.4986   28.9737  -74.3663 N.am      1 UNK        -0.4739 
      5 CA        -80.3482   27.9259  -73.7888 C.3       1 UNK         0.0864 
      6 C6        -81.1503   28.3995  -72.5377 C.3       11 UNK        -0.0881 
      7 S7        -81.1620   27.1427  -71.2122 S.3       11 UNK        -0.2682 
      8 C8        -79.9182   27.8006  -70.0475 C.3       11 UNK         0.0289 
      9 C9        -78.5054   27.7064  -70.6090 C.ar      11 UNK        -0.0687 
     10 C10       -77.7192   26.5752  -70.3695 C.ar      11 UNK        -0.0823 
     11 C11       -76.4389   26.4704  -70.9255 C.ar      11 UNK        -0.0830 
     12 C12       -75.9524   27.5087  -71.7272 C.ar      11 UNK        -0.1021 
     13 C13       -76.7172   28.6583  -71.9535 C.ar      11 UNK        -0.0753 
     14 C14       -77.9850   28.7520  -71.3758 C.ar      11 UNK        -0.0933 
     15 C15       -76.2336   29.7901  -72.8567 C.3       11 UNK         0.0166 
     16 S16       -74.4416   30.1100  -72.7850 S.3       11 UNK        -0.2615 
     17 C17       -74.3265   31.4726  -73.9935 C.3       11 UNK        -0.0865 
     18 CA        -74.0013   30.9761  -75.4343 C.3       10 UNK         0.0862 
     19 C         -74.2115   32.0803  -76.5158 C.2       10 UNK         0.5551 
     20 N         -73.4484   32.0945  -77.6030 N.am      10 UNK        -0.7319 
     21 O         -75.1016   32.9185  -76.3890 O.2       10 UNK        -0.5018 
     22 N         -72.7151   30.2584  -75.5343 N.am      10 UNK        -0.4509 
     23 C         -71.5030   30.7777  -75.2864 C.2       10 UNK         0.4899 
     24 O         -71.3221   31.9364  -74.9077 O.2       10 UNK        -0.4839 
     25 CA        -70.2823   29.8685  -75.5417 C.3       9 UNK         0.0222 
     26 CB        -69.0022   30.3724  -74.8398 C.3       9 UNK        -0.1966 
     27 N         -70.5143   28.4522  -75.2378 N.am      9 UNK        -0.4218 
     28 C         -70.8340   27.8977  -74.0597 C.2       9 UNK         0.5020 
     29 O         -70.9840   28.5383  -73.0180 O.2       9 UNK        -0.5274 
     30 CA        -71.0020   26.3611  -74.0524 C.3       8 UNK         0.0270 
     31 CB        -71.4991   25.8301  -72.6941 C.3       8 UNK        -0.1976 
     32 N         -71.9008   25.8843  -75.1112 N.am      8 UNK        -0.4313 
     33 C         -71.5971   25.8087  -76.4174 C.2       8 UNK         0.5041 
     34 O         -70.4863   26.0995  -76.8639 O.2       8 UNK        -0.5577 
     35 CA        -72.7062   25.3981  -77.4058 C.3       7 UNK         0.0284 
     36 CB        -72.5386   23.9273  -77.8172 C.3       7 UNK        -0.1958 
     37 N         -74.0611   25.6135  -76.8927 N.am      7 UNK        -0.4454 
     38 C         -74.5757   26.8142  -76.5827 C.2       7 UNK         0.5089 
     39 O         -73.9947   27.8766  -76.8072 O.2       7 UNK        -0.5125 
     40 CA        -75.9368   26.8488  -75.8580 C.3       6 UNK         0.0408 
     41 CB        -77.0484   27.2741  -76.8287 C.3       6 UNK        -0.1791 
     42 N         -76.3270   25.5943  -75.2041 N.am      6 UNK        -0.4762 
     43 C         -75.6167   24.9401  -74.2689 C.2       6 UNK         0.5007 
     44 O         -74.5232   25.3237  -73.8551 O.2       6 UNK        -0.5032 
     45 CA        -76.1901   23.5942  -73.7718 C.3       5 UNK         0.0783 
     46 C46       -77.1539   23.8221  -72.5750 C.3       11 UNK        -0.0857 
     47 S47       -76.3677   23.6426  -70.9397 S.3       11 UNK        -0.2512 
     48 C48       -75.5573   25.2545  -70.6548 C.3       11 UNK         0.0225 
     49 N         -76.8580   22.8299  -74.8334 N.am      5 UNK        -0.4615 
     50 C         -76.3966   22.5554  -76.0628 C.2       4 UNK         0.5053 
     51 O         -75.2577   22.8257  -76.4410 O.2       4 UNK        -0.5105 
     52 CA        -77.3884   21.9225  -77.0615 C.3       4 UNK         0.0263 
     53 CB        -77.0101   20.4581  -77.3374 C.3       4 UNK        -0.1981 
     54 N         -78.8004   21.9873  -76.6542 N.am      4 UNK        -0.4224 
     55 C         -79.4968   23.1075  -76.4103 C.2       3 UNK         0.4895 
     56 O         -79.0291   24.2453  -76.5188 O.2       3 UNK        -0.5091 
     57 CA        -80.9227   22.9120  -75.8793 C.3       3 UNK         0.0250 
     58 CB        -80.8996   22.2321  -74.4920 C.3       3 UNK        -0.1996 
     59 N         -81.5662   24.2184  -75.7844 N.am      3 UNK        -0.4254 
     60 C         -82.8620   24.4587  -75.5615 C.2       2 UNK         0.5004 
     61 O         -83.7108   23.5698  -75.4689 O.2       2 UNK        -0.5226 
     62 CA        -83.2685   25.9355  -75.3824 C.3       2 UNK         0.0269 
     63 CB        -84.7013   26.0933  -74.8395 C.3       2 UNK        -0.1926 
     64 N         -82.3464   26.6510  -74.4923 N.am      2 UNK        -0.4687 
     65 C         -81.2016   27.2303  -74.8757 C.2       1 UNK         0.5165 
     66 O         -80.7935   27.1862  -76.0387 O.2       1 UNK        -0.5079 
     67 H67       -78.5924   31.8416  -74.8269 H         1 UNK         0.0900 
     68 H68       -77.9384   30.4743  -75.7417 H         1 UNK         0.0900 
     69 H69       -79.2189   31.4650  -76.4363 H         1 UNK         0.0900 
     70 H70       -78.5221   28.7307  -74.4306 H         1 UNK         0.2959 
     71 H71       -79.6371   27.1629  -73.4668 H         1 UNK         0.1079 
     72 H72       -82.1762   28.6756  -72.7888 H         1 UNK         0.0837 
     73 H73       -80.7272   29.3172  -72.1320 H         1 UNK         0.0837 
     74 H74       -80.1607   28.8339  -69.7942 H         1 UNK         0.0685 
     75 H75       -79.9819   27.2393  -69.1142 H         1 UNK         0.0685 
     76 H76       -78.1082   25.7695  -69.7616 H         1 UNK         0.1434 
     77 H77       -74.9725   27.4206  -72.1763 H         1 UNK         0.1329 
     78 H78       -78.5824   29.6356  -71.5492 H         1 UNK         0.1335 
     79 H79       -76.7546   30.7146  -72.6009 H         1 UNK         0.0680 
     80 H80       -76.5054   29.5528  -73.8847 H         1 UNK         0.0680 
     81 H81       -73.5716   32.1796  -73.6480 H         1 UNK         0.1032 
     82 H82       -75.2663   32.0269  -73.9759 H         1 UNK         0.1032 
     83 H83       -74.7562   30.2298  -75.6825 H         1 UNK         0.0461 
     84 H84       -73.5979   32.8042  -78.3033 H         1 UNK         0.3453 
     85 H85       -72.7298   31.4004  -77.7307 H         1 UNK         0.3453 
     86 H86       -72.7892   29.3068  -75.8764 H         1 UNK         0.2984 
     87 H87       -70.1012   29.9136  -76.6166 H         1 UNK         0.0554 
     88 H88       -68.7406   31.3774  -75.1728 H         1 UNK         0.0847 
     89 H89       -68.1493   29.7301  -75.0587 H         1 UNK         0.0847 
     90 H90       -69.1241   30.4110  -73.7566 H         1 UNK         0.0847 
     91 H91       -70.4129   27.8058  -76.0182 H         1 UNK         0.3141 
     92 H92       -70.0126   25.9342  -74.2286 H         1 UNK         0.0743 
     93 H93       -72.4581   26.2696  -72.4178 H         1 UNK         0.0784 
     94 H94       -71.6184   24.7466  -72.7082 H         1 UNK         0.0784 
     95 H95       -70.7919   26.0679  -71.8985 H         1 UNK         0.0784 
     96 H96       -72.8494   25.6641  -74.8171 H         1 UNK         0.3213 
     97 H97       -72.5904   26.0174  -78.2979 H         1 UNK         0.0855 
     98 H98       -72.6222   23.2578  -76.9601 H         1 UNK         0.0814 
     99 H99       -71.5600   23.7577  -78.2683 H         1 UNK         0.0814 
    100 H100      -73.2892   23.6299  -78.5496 H         1 UNK         0.0814 
    101 H101      -74.5960   24.7803  -76.6680 H         1 UNK         0.3105 
    102 H102      -75.8562   27.6035  -75.0749 H         1 UNK         0.0547 
    103 H103      -78.0077   27.3727  -76.3224 H         1 UNK         0.0837 
    104 H104      -77.1748   26.5500  -77.6343 H         1 UNK         0.0837 
    105 H105      -76.8219   28.2377  -77.2869 H         1 UNK         0.0837 
    106 H106      -77.1922   25.1736  -75.5238 H         1 UNK         0.3020 
    107 H107      -75.3434   22.9853  -73.4479 H         1 UNK         0.1245 
    108 H108      -77.9425   23.0680  -72.5832 H         1 UNK         0.0781 
    109 H109      -77.6888   24.7713  -72.6437 H         1 UNK         0.0781 
    110 H110      -74.6483   25.2933  -71.2555 H         1 UNK         0.0836 
    111 H111      -75.2264   25.2942  -69.6165 H         1 UNK         0.0836 
    112 H112      -77.8050   22.5476  -74.6351 H         1 UNK         0.3022 
    113 H113      -77.2933   22.4815  -77.9947 H         1 UNK         0.0747 
    114 H114      -77.6360   20.0257  -78.1182 H         1 UNK         0.0793 
    115 H115      -75.9759   20.3785  -77.6758 H         1 UNK         0.0793 
    116 H116      -77.1088   19.8397  -76.4444 H         1 UNK         0.0793 
    117 H117      -79.2660   21.0990  -76.5318 H         1 UNK         0.3047 
    118 H118      -81.4749   22.2950  -76.5910 H         1 UNK         0.0822 
    119 H119      -81.9067   22.0590  -74.1131 H         1 UNK         0.0807 
    120 H120      -80.3712   22.8398  -73.7562 H         1 UNK         0.0807 
    121 H121      -80.4099   21.2586  -74.5270 H         1 UNK         0.0807 
    122 H122      -80.9352   25.0033  -75.9211 H         1 UNK         0.2946 
    123 H123      -83.2391   26.3924  -76.3745 H         1 UNK         0.1144 
    124 H124      -84.8149   25.6300  -73.8590 H         1 UNK         0.0793 
    125 H125      -85.4273   25.6279  -75.5075 H         1 UNK         0.0793 
    126 H126      -84.9776   27.1440  -74.7488 H         1 UNK         0.0793 
    127 H127      -82.5880   26.6677  -73.5108 H         1 UNK         0.2896 
@<TRIPOS>BOND
     1    1    2 1    
     2    1   67 1    
     3    1   68 1    
     4    1   69 1    
     5    2    3 2    
     6    2    4 am   BACKBONE|DICT|INTERRES
     7    4    5 1    
     8    4   70 1    
     9    5    6 1    
    10    5   65 1    
    11    5   71 1    
    12    6    7 1    
    13    6   72 1    
    14    6   73 1    
    15    7    8 1    
    16    8    9 1    
    17    8   74 1    
    18    8   75 1    
    19    9   10 ar   
    20    9   14 ar   
    21   10   11 ar   
    22   10   76 1    
    23   11   12 ar   
    24   11   48 1    
    25   12   13 ar   
    26   12   77 1    
    27   13   14 ar   
    28   13   15 1    
    29   14   78 1    
    30   15   16 1    
    31   15   79 1    
    32   15   80 1    
    33   16   17 1    
    34   17   18 1    
    35   17   81 1    
    36   17   82 1    
    37   18   19 1    
    38   18   22 1    
    39   18   83 1    
    40   19   20 am   BACKBONE|DICT|INTERRES
    41   19   21 2    
    42   20   84 1    
    43   20   85 1    
    44   22   23 am   BACKBONE|DICT|INTERRES
    45   22   86 1    
    46   23   24 2    
    47   23   25 1    
    48   25   26 1    
    49   25   27 1    
    50   25   87 1    
    51   26   88 1    
    52   26   89 1    
    53   26   90 1    
    54   27   28 am   BACKBONE|DICT|INTERRES
    55   27   91 1    
    56   28   29 2    
    57   28   30 1    
    58   30   31 1    
    59   30   32 1    
    60   30   92 1    
    61   31   93 1    
    62   31   94 1    
    63   31   95 1    
    64   32   33 am   BACKBONE|DICT|INTERRES
    65   32   96 1    
    66   33   34 2    
    67   33   35 1    
    68   35   36 1    
    69   35   37 1    
    70   35   97 1    
    71   36   98 1    
    72   36   99 1    
    73   36  100 1    
    74   37   38 am   BACKBONE|DICT|INTERRES
    75   37  101 1    
    76   38   39 2    
    77   38   40 1    
    78   40   41 1    
    79   40   42 1    
    80   40  102 1    
    81   41  103 1    
    82   41  104 1    
    83   41  105 1    
    84   42   43 am   BACKBONE|DICT|INTERRES
    85   42  106 1    
    86   43   44 2    
    87   43   45 1    
    88   45   46 1    
    89   45   49 1    
    90   45  107 1    
    91   46   47 1    
    92   46  108 1    
    93   46  109 1    
    94   47   48 1    
    95   48  110 1    
    96   48  111 1    
    97   49   50 am   BACKBONE|DICT|INTERRES
    98   49  112 1    
    99   50   51 2    
   100   50   52 1    
   101   52   53 1    
   102   52   54 1    
   103   52  113 1    
   104   53  114 1    
   105   53  115 1    
   106   53  116 1    
   107   54   55 am   BACKBONE|DICT|INTERRES
   108   54  117 1    
   109   55   56 2    
   110   55   57 1    
   111   57   58 1    
   112   57   59 1    
   113   57  118 1    
   114   58  119 1    
   115   58  120 1    
   116   58  121 1    
   117   59   60 am   BACKBONE|DICT|INTERRES
   118   59  122 1    
   119   60   61 2    
   120   60   62 1    
   121   62   63 1    
   122   62   64 1    
   123   62  123 1    
   124   63  124 1    
   125   63  125 1    
   126   63  126 1    
   127   64   65 am   BACKBONE|DICT|INTERRES
   128   64  127 1    
   129   65   66 2    
@<TRIPOS>SUBSTRUCTURE
     1 UNK         1 GROUP             0       ****    0 ROOT    
