@<TRIPOS>MOLECULE
3R135
127   129    1
SMALL
USER_CHARGES


@<TRIPOS>ATOM
      1 CA        -83.1952   23.2395  -72.5786 C.3       0 UNK        -0.1998 
      2 C         -82.6686   24.5323  -73.1813 C.2       0 UNK         0.4909 
      3 O         -82.6913   24.6968  -74.4019 O.2       0 UNK        -0.5240 
      4 N         -82.1987   25.4537  -72.3296 N.am      1 UNK        -0.4739 
      5 CA        -81.6813   26.7690  -72.7223 C.3       1 UNK         0.0864 
      6 C6        -81.4641   27.6845  -71.4922 C.3       11 UNK        -0.0881 
      7 S7        -81.4836   29.4572  -71.9372 S.3       11 UNK        -0.2682 
      8 C8        -80.0177   30.1017  -71.0690 C.3       11 UNK         0.0289 
      9 C9        -78.7085   29.6556  -71.7068 C.ar      11 UNK        -0.0687 
     10 C10       -77.9806   28.6011  -71.1500 C.ar      11 UNK        -0.0823 
     11 C11       -76.7615   28.2109  -71.7067 C.ar      11 UNK        -0.0830 
     12 C12       -76.2686   28.8837  -72.8268 C.ar      11 UNK        -0.1021 
     13 C13       -76.9757   29.9520  -73.3926 C.ar      11 UNK        -0.0753 
     14 C14       -78.2013   30.3241  -72.8268 C.ar      11 UNK        -0.0933 
     15 C15       -76.4620   30.7188  -74.6150 C.3       11 UNK         0.0166 
     16 S16       -74.6708   30.5804  -74.9484 S.3       11 UNK        -0.2615 
     17 C17       -73.9792   31.4206  -73.4820 C.3       11 UNK        -0.0865 
     18 CA        -72.4282   31.3205  -73.3921 C.3       10 UNK         0.0862 
     19 C         -71.8474   32.1609  -72.2136 C.2       10 UNK         0.5551 
     20 N         -70.7692   31.7355  -71.5661 N.am      10 UNK        -0.7319 
     21 O         -72.3591   33.2332  -71.8997 O.2       10 UNK        -0.5018 
     22 N         -71.9181   29.9381  -73.4701 N.am      10 UNK        -0.4509 
     23 C         -72.1798   28.9307  -72.6280 C.2       10 UNK         0.4899 
     24 O         -72.9156   29.0298  -71.6462 O.2       10 UNK        -0.4839 
     25 CA        -71.4915   27.5859  -72.9423 C.3       9 UNK         0.0222 
     26 CB        -71.9261   26.4463  -72.0015 C.3       9 UNK        -0.1966 
     27 N         -71.6852   27.1635  -74.3342 N.am      9 UNK        -0.4218 
     28 C         -70.9738   27.6124  -75.3779 C.2       9 UNK         0.5020 
     29 O         -70.1048   28.4811  -75.2880 O.2       9 UNK        -0.5274 
     30 CA        -71.2980   27.0094  -76.7477 C.3       8 UNK         0.0270 
     31 CB        -70.7880   25.5615  -76.8472 C.3       8 UNK        -0.1976 
     32 N         -72.7349   27.0403  -77.0126 N.am      8 UNK        -0.4313 
     33 C         -73.3668   28.0194  -77.6768 C.2       8 UNK         0.5041 
     34 O         -72.8006   29.0407  -78.0711 O.2       8 UNK        -0.5577 
     35 CA        -74.8740   27.8282  -77.9729 C.3       7 UNK         0.0284 
     36 CB        -75.2961   28.4618  -79.3141 C.3       7 UNK        -0.1958 
     37 N         -75.3308   26.4340  -77.9035 N.am      7 UNK        -0.4454 
     38 C         -74.8523   25.3666  -78.5614 C.2       7 UNK         0.5089 
     39 O         -74.0239   25.4354  -79.4707 O.2       7 UNK        -0.5125 
     40 CA        -75.3411   23.9842  -78.0758 C.3       6 UNK         0.0408 
     41 CB        -74.2842   22.8836  -78.3006 C.3       6 UNK        -0.1791 
     42 N         -75.7951   23.9634  -76.6763 N.am      6 UNK        -0.4762 
     43 C         -75.1171   24.3262  -75.5726 C.2       6 UNK         0.5007 
     44 O         -73.9629   24.7612  -75.5992 O.2       6 UNK        -0.5032 
     45 CA        -75.8515   24.2413  -74.2139 C.3       5 UNK         0.0783 
     46 C46       -75.8316   25.6052  -73.4864 C.3       11 UNK        -0.0857 
     47 S47       -76.4351   25.4616  -71.7709 S.3       11 UNK        -0.2512 
     48 C48       -75.9631   27.0771  -71.0839 C.3       11 UNK         0.0225 
     49 N         -77.2261   23.7480  -74.3433 N.am      5 UNK        -0.4615 
     50 C         -77.5843   22.4630  -74.4304 C.2       4 UNK         0.5053 
     51 O         -76.7925   21.5225  -74.3744 O.2       4 UNK        -0.5105 
     52 CA        -79.0799   22.1891  -74.6565 C.3       4 UNK         0.0263 
     53 CB        -79.8178   22.0808  -73.3140 C.3       4 UNK        -0.1981 
     54 N         -79.7156   23.2120  -75.4962 N.am      4 UNK        -0.4224 
     55 C         -79.4633   23.3679  -76.8049 C.2       3 UNK         0.4895 
     56 O         -78.7114   22.6355  -77.4479 O.2       3 UNK        -0.5091 
     57 CA        -80.1225   24.5640  -77.5093 C.3       3 UNK         0.0250 
     58 CB        -81.5688   24.2331  -77.9098 C.3       3 UNK        -0.1996 
     59 N         -80.0994   25.7841  -76.7006 N.am      3 UNK        -0.4254 
     60 C         -78.9876   26.4578  -76.3692 C.2       2 UNK         0.5004 
     61 O         -77.8561   26.1330  -76.7204 O.2       2 UNK        -0.5226 
     62 CA        -79.1539   27.6947  -75.4750 C.3       2 UNK         0.0269 
     63 CB        -79.3271   28.9520  -76.3410 C.3       2 UNK        -0.1926 
     64 N         -80.2708   27.6003  -74.5347 N.am      2 UNK        -0.4687 
     65 C         -80.4126   26.6568  -73.5942 C.2       1 UNK         0.5165 
     66 O         -79.6139   25.7316  -73.4205 O.2       1 UNK        -0.5079 
     67 H67       -83.1600   22.4330  -73.3104 H         1 UNK         0.0900 
     68 H68       -82.6066   22.9374  -71.7125 H         1 UNK         0.0900 
     69 H69       -84.2314   23.3660  -72.2664 H         1 UNK         0.0900 
     70 H70       -82.1732   25.2465  -71.3416 H         1 UNK         0.2959 
     71 H71       -82.4643   27.2155  -73.3402 H         1 UNK         0.1079 
     72 H72       -80.5479   27.4196  -70.9634 H         1 UNK         0.0837 
     73 H73       -82.2714   27.5394  -70.7724 H         1 UNK         0.0837 
     74 H74       -80.0585   29.8027  -70.0204 H         1 UNK         0.0685 
     75 H75       -80.0643   31.1917  -71.0719 H         1 UNK         0.0685 
     76 H76       -78.3567   28.0862  -70.2768 H         1 UNK         0.1434 
     77 H77       -75.3229   28.5712  -73.2453 H         1 UNK         0.1329 
     78 H78       -78.7626   31.1437  -73.2543 H         1 UNK         0.1335 
     79 H79       -76.9916   30.3596  -75.4961 H         1 UNK         0.0680 
     80 H80       -76.7101   31.7767  -74.5158 H         1 UNK         0.0680 
     81 H81       -74.2901   32.4659  -73.5277 H         1 UNK         0.1032 
     82 H82       -74.4354   31.0132  -72.5789 H         1 UNK         0.1032 
     83 H83       -72.0335   31.8073  -74.2844 H         1 UNK         0.0461 
     84 H84       -70.3927   32.2896  -70.8132 H         1 UNK         0.3453 
     85 H85       -70.3324   30.8650  -71.8225 H         1 UNK         0.3453 
     86 H86       -71.2791   29.7458  -74.2345 H         1 UNK         0.2984 
     87 H87       -70.4237   27.7424  -72.7748 H         1 UNK         0.0554 
     88 H88       -71.7601   26.7144  -70.9572 H         1 UNK         0.0847 
     89 H89       -71.3554   25.5373  -72.1922 H         1 UNK         0.0847 
     90 H90       -72.9814   26.2048  -72.1109 H         1 UNK         0.0847 
     91 H91       -72.3998   26.4698  -74.5061 H         1 UNK         0.3141 
     92 H92       -70.7733   27.5959  -77.5053 H         1 UNK         0.0743 
     93 H93       -69.7120   25.5146  -76.6741 H         1 UNK         0.0784 
     94 H94       -70.9754   25.1463  -77.8379 H         1 UNK         0.0784 
     95 H95       -71.2649   24.9058  -76.1177 H         1 UNK         0.0784 
     96 H96       -73.2728   26.2369  -76.6990 H         1 UNK         0.3213 
     97 H97       -75.4025   28.3557  -77.1772 H         1 UNK         0.0855 
     98 H98       -74.7635   28.0163  -80.1547 H         1 UNK         0.0814 
     99 H99       -75.0875   29.5323  -79.3259 H         1 UNK         0.0814 
    100 H100      -76.3649   28.3403  -79.4901 H         1 UNK         0.0814 
    101 H101      -76.0980   26.2577  -77.2554 H         1 UNK         0.3105 
    102 H102      -76.2149   23.7404  -78.6815 H         1 UNK         0.0547 
    103 H103      -74.6468   21.9116  -77.9665 H         1 UNK         0.0837 
    104 H104      -73.3585   23.0991  -77.7656 H         1 UNK         0.0837 
    105 H105      -74.0343   22.7873  -79.3578 H         1 UNK         0.0837 
    106 H106      -76.7565   23.6743  -76.5491 H         1 UNK         0.3020 
    107 H107      -75.2815   23.5291  -73.6127 H         1 UNK         0.1245 
    108 H108      -76.4521   26.3266  -74.0202 H         1 UNK         0.0781 
    109 H109      -74.8252   26.0231  -73.4600 H         1 UNK         0.0781 
    110 H110      -74.8951   27.2425  -71.2233 H         1 UNK         0.0836 
    111 H111      -76.1243   27.0603  -70.0051 H         1 UNK         0.0836 
    112 H112      -77.9541   24.4524  -74.3342 H         1 UNK         0.3022 
    113 H113      -79.1642   21.2279  -75.1683 H         1 UNK         0.0747 
    114 H114      -80.8459   21.7528  -73.4591 H         1 UNK         0.0793 
    115 H115      -79.3377   21.3497  -72.6620 H         1 UNK         0.0793 
    116 H116      -79.8330   23.0324  -72.7809 H         1 UNK         0.0793 
    117 H117      -80.3260   23.8751  -75.0358 H         1 UNK         0.3047 
    118 H118      -79.5546   24.7608  -78.4215 H         1 UNK         0.0822 
    119 H119      -82.0170   25.0443  -78.4838 H         1 UNK         0.0807 
    120 H120      -82.1996   24.0497  -77.0391 H         1 UNK         0.0807 
    121 H121      -81.6056   23.3383  -78.5328 H         1 UNK         0.0807 
    122 H122      -80.9847   26.1132  -76.3420 H         1 UNK         0.2946 
    123 H123      -78.2397   27.7971  -74.8872 H         1 UNK         0.1144 
    124 H124      -79.3802   29.8525  -75.7291 H         1 UNK         0.0793 
    125 H125      -80.2341   28.9048  -76.9449 H         1 UNK         0.0793 
    126 H126      -78.4865   29.0723  -77.0262 H         1 UNK         0.0793 
    127 H127      -80.9606   28.3365  -74.5837 H         1 UNK         0.2896 
@<TRIPOS>BOND
     1    1    2 1    
     2    1   67 1    
     3    1   68 1    
     4    1   69 1    
     5    2    3 2    
     6    2    4 am   BACKBONE|DICT|INTERRES
     7    4    5 1    
     8    4   70 1    
     9    5    6 1    
    10    5   65 1    
    11    5   71 1    
    12    6    7 1    
    13    6   72 1    
    14    6   73 1    
    15    7    8 1    
    16    8    9 1    
    17    8   74 1    
    18    8   75 1    
    19    9   10 ar   
    20    9   14 ar   
    21   10   11 ar   
    22   10   76 1    
    23   11   12 ar   
    24   11   48 1    
    25   12   13 ar   
    26   12   77 1    
    27   13   14 ar   
    28   13   15 1    
    29   14   78 1    
    30   15   16 1    
    31   15   79 1    
    32   15   80 1    
    33   16   17 1    
    34   17   18 1    
    35   17   81 1    
    36   17   82 1    
    37   18   19 1    
    38   18   22 1    
    39   18   83 1    
    40   19   20 am   BACKBONE|DICT|INTERRES
    41   19   21 2    
    42   20   84 1    
    43   20   85 1    
    44   22   23 am   BACKBONE|DICT|INTERRES
    45   22   86 1    
    46   23   24 2    
    47   23   25 1    
    48   25   26 1    
    49   25   27 1    
    50   25   87 1    
    51   26   88 1    
    52   26   89 1    
    53   26   90 1    
    54   27   28 am   BACKBONE|DICT|INTERRES
    55   27   91 1    
    56   28   29 2    
    57   28   30 1    
    58   30   31 1    
    59   30   32 1    
    60   30   92 1    
    61   31   93 1    
    62   31   94 1    
    63   31   95 1    
    64   32   33 am   BACKBONE|DICT|INTERRES
    65   32   96 1    
    66   33   34 2    
    67   33   35 1    
    68   35   36 1    
    69   35   37 1    
    70   35   97 1    
    71   36   98 1    
    72   36   99 1    
    73   36  100 1    
    74   37   38 am   BACKBONE|DICT|INTERRES
    75   37  101 1    
    76   38   39 2    
    77   38   40 1    
    78   40   41 1    
    79   40   42 1    
    80   40  102 1    
    81   41  103 1    
    82   41  104 1    
    83   41  105 1    
    84   42   43 am   BACKBONE|DICT|INTERRES
    85   42  106 1    
    86   43   44 2    
    87   43   45 1    
    88   45   46 1    
    89   45   49 1    
    90   45  107 1    
    91   46   47 1    
    92   46  108 1    
    93   46  109 1    
    94   47   48 1    
    95   48  110 1    
    96   48  111 1    
    97   49   50 am   BACKBONE|DICT|INTERRES
    98   49  112 1    
    99   50   51 2    
   100   50   52 1    
   101   52   53 1    
   102   52   54 1    
   103   52  113 1    
   104   53  114 1    
   105   53  115 1    
   106   53  116 1    
   107   54   55 am   BACKBONE|DICT|INTERRES
   108   54  117 1    
   109   55   56 2    
   110   55   57 1    
   111   57   58 1    
   112   57   59 1    
   113   57  118 1    
   114   58  119 1    
   115   58  120 1    
   116   58  121 1    
   117   59   60 am   BACKBONE|DICT|INTERRES
   118   59  122 1    
   119   60   61 2    
   120   60   62 1    
   121   62   63 1    
   122   62   64 1    
   123   62  123 1    
   124   63  124 1    
   125   63  125 1    
   126   63  126 1    
   127   64   65 am   BACKBONE|DICT|INTERRES
   128   64  127 1    
   129   65   66 2    
@<TRIPOS>SUBSTRUCTURE
     1 UNK         1 GROUP             0       ****    0 ROOT    
