@<TRIPOS>MOLECULE
3R135
127   129    1
SMALL
USER_CHARGES


@<TRIPOS>ATOM
      1 CA        -81.5748   24.5601  -70.0486 C.3       0 UNK        -0.1998 
      2 C         -82.3066   25.4049  -71.0801 C.2       0 UNK         0.4909 
      3 O         -83.5067   25.2211  -71.2838 O.2       0 UNK        -0.5240 
      4 N         -81.5913   26.3264  -71.7377 N.am      1 UNK        -0.4739 
      5 CA        -82.1346   27.2551  -72.7437 C.3       1 UNK         0.0864 
      6 C6        -81.2918   28.5510  -72.8442 C.3       11 UNK        -0.0881 
      7 S7        -81.1653   29.4074  -71.2364 S.3       11 UNK        -0.2682 
      8 C8        -79.7548   30.5304  -71.5204 C.3       11 UNK         0.0289 
      9 C9        -78.4417   29.8334  -71.8737 C.ar      11 UNK        -0.0687 
     10 C10       -78.0878   28.5969  -71.3194 C.ar      11 UNK        -0.0823 
     11 C11       -76.8874   27.9714  -71.6723 C.ar      11 UNK        -0.0830 
     12 C12       -76.0101   28.6192  -72.5489 C.ar      11 UNK        -0.1021 
     13 C13       -76.3336   29.8694  -73.0823 C.ar      11 UNK        -0.0753 
     14 C14       -77.5554   30.4618  -72.7531 C.ar      11 UNK        -0.0933 
     15 C15       -75.3575   30.6019  -73.9897 C.3       11 UNK         0.0166 
     16 S16       -74.3694   31.7854  -73.0228 S.3       11 UNK        -0.2615 
     17 C17       -73.6030   32.8105  -74.3278 C.3       11 UNK        -0.0865 
     18 CA        -72.0620   32.6613  -74.5244 C.3       10 UNK         0.0862 
     19 C         -71.1607   32.9149  -73.2746 C.2       10 UNK         0.5551 
     20 N         -71.6413   33.6301  -72.2661 N.am      10 UNK        -0.7319 
     21 O         -69.9916   32.5341  -73.2455 O.2       10 UNK        -0.5018 
     22 N         -71.6980   31.4827  -75.3273 N.am      10 UNK        -0.4509 
     23 C         -71.5755   30.2135  -74.9172 C.2       10 UNK         0.4899 
     24 O         -71.7781   29.8244  -73.7659 O.2       10 UNK        -0.4839 
     25 CA        -71.1650   29.2248  -76.0224 C.3       9 UNK         0.0222 
     26 CB        -69.6908   29.4069  -76.4432 C.3       9 UNK        -0.1966 
     27 N         -71.4783   27.8305  -75.6915 N.am      9 UNK        -0.4218 
     28 C         -70.8576   26.9969  -74.8396 C.2       9 UNK         0.5020 
     29 O         -69.8306   27.2757  -74.2183 O.2       9 UNK        -0.5274 
     30 CA        -71.4756   25.5961  -74.6396 C.3       8 UNK         0.0270 
     31 CB        -72.0281   25.4513  -73.2112 C.3       8 UNK        -0.1976 
     32 N         -72.5347   25.2798  -75.6051 N.am      8 UNK        -0.4313 
     33 C         -72.3150   24.9699  -76.8931 C.2       8 UNK         0.5041 
     34 O         -71.1885   24.8084  -77.3645 O.2       8 UNK        -0.5577 
     35 CA        -73.5318   24.8456  -77.8337 C.3       7 UNK         0.0284 
     36 CB        -73.8465   23.3648  -78.1020 C.3       7 UNK        -0.1958 
     37 N         -74.7492   25.5163  -77.3667 N.am      7 UNK        -0.4454 
     38 C         -74.8738   26.8170  -77.0665 C.2       7 UNK         0.5089 
     39 O         -73.9731   27.6427  -77.2139 O.2       7 UNK        -0.5125 
     40 CA        -76.1998   27.2571  -76.4187 C.3       6 UNK         0.0408 
     41 CB        -77.1979   27.7189  -77.4895 C.3       6 UNK        -0.1791 
     42 N         -76.8234   26.2301  -75.5746 N.am      6 UNK        -0.4762 
     43 C         -76.2387   25.6259  -74.5266 C.2       6 UNK         0.5007 
     44 O         -75.0746   25.8242  -74.1818 O.2       6 UNK        -0.5032 
     45 CA        -77.0871   24.5846  -73.7792 C.3       5 UNK         0.0783 
     46 C46       -78.2149   25.2574  -72.9469 C.3       11 UNK        -0.0857 
     47 S47       -77.8396   25.3664  -71.1661 S.3       11 UNK        -0.2512 
     48 C48       -76.5091   26.6174  -71.0805 C.3       11 UNK         0.0225 
     49 N         -77.6052   23.6166  -74.7472 N.am      5 UNK        -0.4615 
     50 C         -76.8868   22.6135  -75.2727 C.2       4 UNK         0.5053 
     51 O         -75.7553   22.3145  -74.8926 O.2       4 UNK        -0.5105 
     52 CA        -77.5213   21.8118  -76.4257 C.3       4 UNK         0.0263 
     53 CB        -78.1594   20.5198  -75.8907 C.3       4 UNK        -0.1981 
     54 N         -78.5247   22.5654  -77.1822 N.am      4 UNK        -0.4224 
     55 C         -78.2683   23.6412  -77.9413 C.2       3 UNK         0.4895 
     56 O         -77.1379   24.0782  -78.1489 O.2       3 UNK        -0.5091 
     57 CA        -79.4867   24.3962  -78.5055 C.3       3 UNK         0.0250 
     58 CB        -79.8835   23.8301  -79.8778 C.3       3 UNK        -0.1996 
     59 N         -80.6494   24.3779  -77.6080 N.am      3 UNK        -0.4254 
     60 C         -80.6503   24.8513  -76.3537 C.2       2 UNK         0.5004 
     61 O         -79.6737   25.3967  -75.8306 O.2       2 UNK        -0.5226 
     62 CA        -81.9159   24.5778  -75.5273 C.3       2 UNK         0.0269 
     63 CB        -82.0109   23.0819  -75.1764 C.3       2 UNK        -0.1926 
     64 N         -81.9030   25.3365  -74.2783 N.am      2 UNK        -0.4687 
     65 C         -82.3104   26.6036  -74.1355 C.2       1 UNK         0.5165 
     66 O         -82.8132   27.2577  -75.0511 O.2       1 UNK        -0.5079 
     67 H67       -82.1225   24.5599  -69.1066 H         1 UNK         0.0900 
     68 H68       -80.5713   24.9363  -69.8523 H         1 UNK         0.0900 
     69 H69       -81.4921   23.5306  -70.3958 H         1 UNK         0.0900 
     70 H70       -80.6120   26.4448  -71.5200 H         1 UNK         0.2959 
     71 H71       -83.1386   27.5450  -72.4250 H         1 UNK         0.1079 
     72 H72       -80.2935   28.3211  -73.2207 H         1 UNK         0.0837 
     73 H73       -81.7348   29.2484  -73.5580 H         1 UNK         0.0837 
     74 H74       -80.0346   31.2306  -72.3093 H         1 UNK         0.0685 
     75 H75       -79.5983   31.1256  -70.6201 H         1 UNK         0.0685 
     76 H76       -78.7513   28.1114  -70.6178 H         1 UNK         0.1434 
     77 H77       -75.0650   28.1598  -72.8063 H         1 UNK         0.1329 
     78 H78       -77.8043   31.4296  -73.1670 H         1 UNK         0.1335 
     79 H79       -75.9086   31.1266  -74.7716 H         1 UNK         0.0680 
     80 H80       -74.6921   29.8977  -74.4919 H         1 UNK         0.0680 
     81 H81       -73.8355   33.8509  -74.0953 H         1 UNK         0.1032 
     82 H82       -74.1079   32.6249  -75.2767 H         1 UNK         0.1032 
     83 H83       -71.7831   33.4865  -75.1809 H         1 UNK         0.0461 
     84 H84       -71.0500   33.8192  -71.4721 H         1 UNK         0.3453 
     85 H85       -72.6016   33.9355  -72.2625 H         1 UNK         0.3453 
     86 H86       -71.4776   31.6844  -76.2918 H         1 UNK         0.2984 
     87 H87       -71.7842   29.4484  -76.8927 H         1 UNK         0.0554 
     88 H88       -69.3953   28.6687  -77.1888 H         1 UNK         0.0847 
     89 H89       -69.0106   29.3202  -75.5954 H         1 UNK         0.0847 
     90 H90       -69.5264   30.3913  -76.8822 H         1 UNK         0.0847 
     91 H91       -72.3340   27.4970  -76.1258 H         1 UNK         0.3141 
     92 H92       -70.6731   24.8660  -74.7647 H         1 UNK         0.0743 
     93 H93       -72.7655   26.2224  -72.9850 H         1 UNK         0.0784 
     94 H94       -72.4981   24.4794  -73.0593 H         1 UNK         0.0784 
     95 H95       -71.2291   25.5449  -72.4747 H         1 UNK         0.0784 
     96 H96       -73.4902   25.3989  -75.2768 H         1 UNK         0.3213 
     97 H97       -73.2510   25.3130  -78.7797 H         1 UNK         0.0855 
     98 H98       -74.1831   22.8557  -77.1981 H         1 UNK         0.0814 
     99 H99       -72.9648   22.8354  -78.4661 H         1 UNK         0.0814 
    100 H100      -74.6228   23.2538  -78.8591 H         1 UNK         0.0814 
    101 H101      -75.5832   24.9394  -77.3005 H         1 UNK         0.3105 
    102 H102      -75.9802   28.1076  -75.7710 H         1 UNK         0.0547 
    103 H103      -76.7933   28.5547  -78.0618 H         1 UNK         0.0837 
    104 H104      -77.4235   26.9215  -78.1970 H         1 UNK         0.0837 
    105 H105      -78.1357   28.0528  -77.0452 H         1 UNK         0.0837 
    106 H106      -77.7901   25.9933  -75.7817 H         1 UNK         0.3020 
    107 H107      -76.4194   24.0479  -73.1005 H         1 UNK         0.1245 
    108 H108      -79.1292   24.6668  -73.0185 H         1 UNK         0.0781 
    109 H109      -78.4920   26.2449  -73.3227 H         1 UNK         0.0781 
    110 H110      -75.6177   26.2165  -71.5645 H         1 UNK         0.0836 
    111 H111      -76.2407   26.7634  -70.0336 H         1 UNK         0.0836 
    112 H112      -78.4990   23.8496  -75.1612 H         1 UNK         0.3022 
    113 H113      -76.7180   21.5398  -77.1141 H         1 UNK         0.0747 
    114 H114      -78.5415   19.8998  -76.7019 H         1 UNK         0.0793 
    115 H115      -77.4286   19.9209  -75.3452 H         1 UNK         0.0793 
    116 H116      -78.9843   20.7282  -75.2080 H         1 UNK         0.0793 
    117 H117      -79.4850   22.2722  -77.0803 H         1 UNK         0.3047 
    118 H118      -79.1944   25.4389  -78.6393 H         1 UNK         0.0822 
    119 H119      -80.6851   24.4132  -80.3314 H         1 UNK         0.0807 
    120 H120      -80.2181   22.7942  -79.8086 H         1 UNK         0.0807 
    121 H121      -79.0386   23.8541  -80.5678 H         1 UNK         0.0807 
    122 H122      -81.4870   23.9398  -77.9649 H         1 UNK         0.2946 
    123 H123      -82.7879   24.8661  -76.1192 H         1 UNK         0.1144 
    124 H124      -82.0914   22.4657  -76.0726 H         1 UNK         0.0793 
    125 H125      -82.8931   22.8752  -74.5698 H         1 UNK         0.0793 
    126 H126      -81.1374   22.7386  -74.6202 H         1 UNK         0.0793 
    127 H127      -81.4851   24.8888  -73.4771 H         1 UNK         0.2896 
@<TRIPOS>BOND
     1    1    2 1    
     2    1   67 1    
     3    1   68 1    
     4    1   69 1    
     5    2    3 2    
     6    2    4 am   BACKBONE|DICT|INTERRES
     7    4    5 1    
     8    4   70 1    
     9    5    6 1    
    10    5   65 1    
    11    5   71 1    
    12    6    7 1    
    13    6   72 1    
    14    6   73 1    
    15    7    8 1    
    16    8    9 1    
    17    8   74 1    
    18    8   75 1    
    19    9   10 ar   
    20    9   14 ar   
    21   10   11 ar   
    22   10   76 1    
    23   11   12 ar   
    24   11   48 1    
    25   12   13 ar   
    26   12   77 1    
    27   13   14 ar   
    28   13   15 1    
    29   14   78 1    
    30   15   16 1    
    31   15   79 1    
    32   15   80 1    
    33   16   17 1    
    34   17   18 1    
    35   17   81 1    
    36   17   82 1    
    37   18   19 1    
    38   18   22 1    
    39   18   83 1    
    40   19   20 am   BACKBONE|DICT|INTERRES
    41   19   21 2    
    42   20   84 1    
    43   20   85 1    
    44   22   23 am   BACKBONE|DICT|INTERRES
    45   22   86 1    
    46   23   24 2    
    47   23   25 1    
    48   25   26 1    
    49   25   27 1    
    50   25   87 1    
    51   26   88 1    
    52   26   89 1    
    53   26   90 1    
    54   27   28 am   BACKBONE|DICT|INTERRES
    55   27   91 1    
    56   28   29 2    
    57   28   30 1    
    58   30   31 1    
    59   30   32 1    
    60   30   92 1    
    61   31   93 1    
    62   31   94 1    
    63   31   95 1    
    64   32   33 am   BACKBONE|DICT|INTERRES
    65   32   96 1    
    66   33   34 2    
    67   33   35 1    
    68   35   36 1    
    69   35   37 1    
    70   35   97 1    
    71   36   98 1    
    72   36   99 1    
    73   36  100 1    
    74   37   38 am   BACKBONE|DICT|INTERRES
    75   37  101 1    
    76   38   39 2    
    77   38   40 1    
    78   40   41 1    
    79   40   42 1    
    80   40  102 1    
    81   41  103 1    
    82   41  104 1    
    83   41  105 1    
    84   42   43 am   BACKBONE|DICT|INTERRES
    85   42  106 1    
    86   43   44 2    
    87   43   45 1    
    88   45   46 1    
    89   45   49 1    
    90   45  107 1    
    91   46   47 1    
    92   46  108 1    
    93   46  109 1    
    94   47   48 1    
    95   48  110 1    
    96   48  111 1    
    97   49   50 am   BACKBONE|DICT|INTERRES
    98   49  112 1    
    99   50   51 2    
   100   50   52 1    
   101   52   53 1    
   102   52   54 1    
   103   52  113 1    
   104   53  114 1    
   105   53  115 1    
   106   53  116 1    
   107   54   55 am   BACKBONE|DICT|INTERRES
   108   54  117 1    
   109   55   56 2    
   110   55   57 1    
   111   57   58 1    
   112   57   59 1    
   113   57  118 1    
   114   58  119 1    
   115   58  120 1    
   116   58  121 1    
   117   59   60 am   BACKBONE|DICT|INTERRES
   118   59  122 1    
   119   60   61 2    
   120   60   62 1    
   121   62   63 1    
   122   62   64 1    
   123   62  123 1    
   124   63  124 1    
   125   63  125 1    
   126   63  126 1    
   127   64   65 am   BACKBONE|DICT|INTERRES
   128   64  127 1    
   129   65   66 2    
@<TRIPOS>SUBSTRUCTURE
     1 UNK         1 GROUP             0       ****    0 ROOT    
