@<TRIPOS>MOLECULE
3R135
127   129    1
SMALL
USER_CHARGES


@<TRIPOS>ATOM
      1 CA        -76.0424   21.9646  -74.9290 C.3       0 UNK        -0.1998 
      2 C         -76.9958   22.0895  -73.7492 C.2       0 UNK         0.4909 
      3 O         -77.0745   21.1776  -72.9249 O.2       0 UNK        -0.5240 
      4 N         -77.7119   23.2146  -73.6672 N.am      1 UNK        -0.4739 
      5 CA        -78.7260   23.5040  -72.6483 C.3       1 UNK         0.0864 
      6 C6        -78.6360   24.9822  -72.1866 C.3       11 UNK        -0.0881 
      7 S7        -77.0632   25.3145  -71.3254 S.3       11 UNK        -0.2682 
      8 C8        -77.3251   26.9957  -70.6825 C.3       11 UNK         0.0289 
      9 C9        -77.5060   28.0140  -71.7981 C.ar      11 UNK        -0.0687 
     10 C10       -78.7892   28.4490  -72.1435 C.ar      11 UNK        -0.0823 
     11 C11       -78.9693   29.3876  -73.1619 C.ar      11 UNK        -0.0830 
     12 C12       -77.8510   29.9096  -73.8190 C.ar      11 UNK        -0.1021 
     13 C13       -76.5658   29.4599  -73.5052 C.ar      11 UNK        -0.0753 
     14 C14       -76.3964   28.5179  -72.4862 C.ar      11 UNK        -0.0933 
     15 C15       -75.3757   29.9735  -74.3003 C.3       11 UNK         0.0166 
     16 S16       -74.7579   31.5462  -73.6344 S.3       11 UNK        -0.2615 
     17 C17       -73.4469   30.9785  -72.4991 C.3       11 UNK        -0.0865 
     18 CA        -72.0396   31.2739  -73.0774 C.3       10 UNK         0.0862 
     19 C         -70.9319   31.0446  -72.0193 C.2       10 UNK         0.5551 
     20 N         -70.1957   32.0867  -71.6489 N.am      10 UNK        -0.7319 
     21 O         -70.7616   29.9411  -71.5034 O.2       10 UNK        -0.5018 
     22 N         -71.7632   30.4609  -74.2676 N.am      10 UNK        -0.4509 
     23 C         -71.0641   30.8836  -75.3303 C.2       10 UNK         0.4899 
     24 O         -70.6555   32.0391  -75.4611 O.2       10 UNK        -0.4839 
     25 CA        -70.7727   29.8436  -76.4357 C.3       9 UNK         0.0222 
     26 CB        -69.6166   30.2604  -77.3698 C.3       9 UNK        -0.1966 
     27 N         -70.5578   28.4925  -75.9065 N.am      9 UNK        -0.4218 
     28 C         -69.6387   28.1125  -75.0021 C.2       9 UNK         0.5020 
     29 O         -68.7145   28.8347  -74.6240 O.2       9 UNK        -0.5274 
     30 CA        -69.7774   26.6954  -74.4004 C.3       8 UNK         0.0270 
     31 CB        -69.4129   26.6699  -72.9007 C.3       8 UNK        -0.1976 
     32 N         -71.0887   26.0621  -74.6103 N.am      8 UNK        -0.4313 
     33 C         -72.2924   26.5296  -74.2465 C.2       8 UNK         0.5041 
     34 O         -72.4839   27.6028  -73.6692 O.2       8 UNK        -0.5577 
     35 CA        -73.4970   25.6756  -74.6698 C.3       7 UNK         0.0284 
     36 CB        -74.2511   25.1627  -73.4366 C.3       7 UNK        -0.1958 
     37 N         -74.4202   26.4147  -75.5357 N.am      7 UNK        -0.4454 
     38 C         -74.0974   26.9852  -76.7081 C.2       7 UNK         0.5089 
     39 O         -72.9532   26.9923  -77.1672 O.2       7 UNK        -0.5125 
     40 CA        -75.2269   27.6493  -77.5160 C.3       6 UNK         0.0408 
     41 CB        -75.2120   27.1999  -78.9891 C.3       6 UNK        -0.1791 
     42 N         -76.5493   27.3941  -76.9399 N.am      6 UNK        -0.4762 
     43 C         -77.5901   28.2331  -76.9841 C.2       6 UNK         0.5007 
     44 O         -77.5602   29.3163  -77.5707 O.2       6 UNK        -0.5032 
     45 CA        -78.8720   27.7739  -76.2513 C.3       5 UNK         0.0783 
     46 C46       -79.9727   28.8699  -76.2081 C.3       11 UNK        -0.0857 
     47 S47       -81.0893   28.6377  -74.7859 S.3       11 UNK        -0.2512 
     48 C48       -80.3732   29.8055  -73.5779 C.3       11 UNK         0.0225 
     49 N         -79.3910   26.5227  -76.8095 N.am      5 UNK        -0.4615 
     50 C         -78.8761   25.3030  -76.6267 C.2       4 UNK         0.5053 
     51 O         -77.8954   25.0744  -75.9117 O.2       4 UNK        -0.5105 
     52 CA        -79.5867   24.1647  -77.3737 C.3       4 UNK         0.0263 
     53 CB        -78.7829   22.8515  -77.3674 C.3       4 UNK        -0.1981 
     54 N         -80.9140   23.9328  -76.8020 N.am      4 UNK        -0.4224 
     55 C         -82.0253   24.5978  -77.1530 C.2       3 UNK         0.4895 
     56 O         -82.0341   25.4909  -78.0020 O.2       3 UNK        -0.5091 
     57 CA        -83.3504   24.2131  -76.4670 C.3       3 UNK         0.0250 
     58 CB        -84.1774   23.2963  -77.3833 C.3       3 UNK        -0.1996 
     59 N         -83.1662   23.5525  -75.1731 N.am      3 UNK        -0.4254 
     60 C         -82.8932   24.1917  -74.0280 C.2       2 UNK         0.5004 
     61 O         -82.8383   25.4171  -73.9249 O.2       2 UNK        -0.5226 
     62 CA        -82.5929   23.3288  -72.7850 C.3       2 UNK         0.0269 
     63 CB        -83.0231   21.8486  -72.9148 C.3       2 UNK        -0.1926 
     64 N         -81.1754   23.4320  -72.4104 N.am      2 UNK        -0.4687 
     65 C         -80.1253   23.1542  -73.1993 C.2       1 UNK         0.5165 
     66 O         -80.2454   22.6526  -74.3207 O.2       1 UNK        -0.5079 
     67 H67       -75.0226   21.8186  -74.5741 H         1 UNK         0.0900 
     68 H68       -76.0574   22.8542  -75.5591 H         1 UNK         0.0900 
     69 H69       -76.3174   21.1086  -75.5446 H         1 UNK         0.0900 
     70 H70       -77.6596   23.8950  -74.4208 H         1 UNK         0.2959 
     71 H71       -78.5680   22.8633  -71.7779 H         1 UNK         0.1079 
     72 H72       -78.7262   25.6560  -73.0414 H         1 UNK         0.0837 
     73 H73       -79.4436   25.2403  -71.5001 H         1 UNK         0.0837 
     74 H74       -78.1871   26.9967  -70.0136 H         1 UNK         0.0685 
     75 H75       -76.4658   27.2759  -70.0716 H         1 UNK         0.0685 
     76 H76       -79.6514   28.0439  -71.6314 H         1 UNK         0.1434 
     77 H77       -77.9791   30.6407  -74.6055 H         1 UNK         0.1329 
     78 H78       -75.4037   28.1709  -72.2341 H         1 UNK         0.1335 
     79 H79       -74.5775   29.2310  -74.3296 H         1 UNK         0.0680 
     80 H80       -75.6726   30.1327  -75.3379 H         1 UNK         0.0680 
     81 H81       -73.5622   29.9161  -72.2750 H         1 UNK         0.1032 
     82 H82       -73.5872   31.5026  -71.5519 H         1 UNK         0.1032 
     83 H83       -72.0266   32.3302  -73.3556 H         1 UNK         0.0461 
     84 H84       -69.4796   31.9581  -70.9511 H         1 UNK         0.3453 
     85 H85       -70.3295   32.9956  -72.0680 H         1 UNK         0.3453 
     86 H86       -72.0016   29.4758  -74.1853 H         1 UNK         0.2984 
     87 H87       -71.6793   29.7865  -77.0400 H         1 UNK         0.0554 
     88 H88       -69.4438   29.5140  -78.1450 H         1 UNK         0.0847 
     89 H89       -68.6834   30.3991  -76.8230 H         1 UNK         0.0847 
     90 H90       -69.8402   31.2017  -77.8732 H         1 UNK         0.0847 
     91 H91       -71.2688   27.8159  -76.1662 H         1 UNK         0.3141 
     92 H92       -69.0517   26.0754  -74.9288 H         1 UNK         0.0743 
     93 H93       -70.0690   27.3176  -72.3178 H         1 UNK         0.0784 
     94 H94       -69.4853   25.6626  -72.4906 H         1 UNK         0.0784 
     95 H95       -68.3903   27.0117  -72.7360 H         1 UNK         0.0784 
     96 H96       -71.0610   25.1905  -75.1225 H         1 UNK         0.3213 
     97 H97       -73.1458   24.8105  -75.2362 H         1 UNK         0.0855 
     98 H98       -74.5929   25.9853  -72.8087 H         1 UNK         0.0814 
     99 H99       -73.6106   24.5305  -72.8204 H         1 UNK         0.0814 
    100 H100      -75.1211   24.5702  -73.7153 H         1 UNK         0.0814 
    101 H101      -75.3638   26.5143  -75.1955 H         1 UNK         0.3105 
    102 H102      -75.0243   28.7217  -77.4808 H         1 UNK         0.0547 
    103 H103      -74.2484   27.4072  -79.4564 H         1 UNK         0.0837 
    104 H104      -75.3980   26.1295  -79.0829 H         1 UNK         0.0837 
    105 H105      -75.9689   27.7243  -79.5723 H         1 UNK         0.0837 
    106 H106      -76.7034   26.4821  -76.5173 H         1 UNK         0.3020 
    107 H107      -78.5575   27.5673  -75.2259 H         1 UNK         0.1245 
    108 H108      -80.5613   28.8635  -77.1270 H         1 UNK         0.0781 
    109 H109      -79.5562   29.8756  -76.1413 H         1 UNK         0.0781 
    110 H110      -81.0209   29.8484  -72.7010 H         1 UNK         0.0836 
    111 H111      -80.3664   30.8123  -73.9984 H         1 UNK         0.0836 
    112 H112      -80.2181   26.5998  -77.3890 H         1 UNK         0.3022 
    113 H113      -79.6883   24.4725  -78.4168 H         1 UNK         0.0747 
    114 H114      -79.2743   22.0862  -77.9679 H         1 UNK         0.0793 
    115 H115      -77.7867   23.0015  -77.7855 H         1 UNK         0.0793 
    116 H116      -78.6570   22.4529  -76.3621 H         1 UNK         0.0793 
    117 H117      -80.9463   23.2903  -76.0147 H         1 UNK         0.3047 
    118 H118      -83.9154   25.1351  -76.3118 H         1 UNK         0.0822 
    119 H119      -85.1505   23.0711  -76.9461 H         1 UNK         0.0807 
    120 H120      -83.6682   22.3513  -77.5769 H         1 UNK         0.0807 
    121 H121      -84.3603   23.7714  -78.3483 H         1 UNK         0.0807 
    122 H122      -83.1682   22.5425  -75.1697 H         1 UNK         0.2946 
    123 H123      -83.1696   23.7677  -71.9688 H         1 UNK         0.1144 
    124 H124      -84.0829   21.7673  -73.1606 H         1 UNK         0.0793 
    125 H125      -82.8754   21.3190  -71.9736 H         1 UNK         0.0793 
    126 H126      -82.4621   21.3118  -73.6802 H         1 UNK         0.0793 
    127 H127      -80.9991   23.8457  -71.5054 H         1 UNK         0.2896 
@<TRIPOS>BOND
     1    1    2 1    
     2    1   67 1    
     3    1   68 1    
     4    1   69 1    
     5    2    3 2    
     6    2    4 am   BACKBONE|DICT|INTERRES
     7    4    5 1    
     8    4   70 1    
     9    5    6 1    
    10    5   65 1    
    11    5   71 1    
    12    6    7 1    
    13    6   72 1    
    14    6   73 1    
    15    7    8 1    
    16    8    9 1    
    17    8   74 1    
    18    8   75 1    
    19    9   10 ar   
    20    9   14 ar   
    21   10   11 ar   
    22   10   76 1    
    23   11   12 ar   
    24   11   48 1    
    25   12   13 ar   
    26   12   77 1    
    27   13   14 ar   
    28   13   15 1    
    29   14   78 1    
    30   15   16 1    
    31   15   79 1    
    32   15   80 1    
    33   16   17 1    
    34   17   18 1    
    35   17   81 1    
    36   17   82 1    
    37   18   19 1    
    38   18   22 1    
    39   18   83 1    
    40   19   20 am   BACKBONE|DICT|INTERRES
    41   19   21 2    
    42   20   84 1    
    43   20   85 1    
    44   22   23 am   BACKBONE|DICT|INTERRES
    45   22   86 1    
    46   23   24 2    
    47   23   25 1    
    48   25   26 1    
    49   25   27 1    
    50   25   87 1    
    51   26   88 1    
    52   26   89 1    
    53   26   90 1    
    54   27   28 am   BACKBONE|DICT|INTERRES
    55   27   91 1    
    56   28   29 2    
    57   28   30 1    
    58   30   31 1    
    59   30   32 1    
    60   30   92 1    
    61   31   93 1    
    62   31   94 1    
    63   31   95 1    
    64   32   33 am   BACKBONE|DICT|INTERRES
    65   32   96 1    
    66   33   34 2    
    67   33   35 1    
    68   35   36 1    
    69   35   37 1    
    70   35   97 1    
    71   36   98 1    
    72   36   99 1    
    73   36  100 1    
    74   37   38 am   BACKBONE|DICT|INTERRES
    75   37  101 1    
    76   38   39 2    
    77   38   40 1    
    78   40   41 1    
    79   40   42 1    
    80   40  102 1    
    81   41  103 1    
    82   41  104 1    
    83   41  105 1    
    84   42   43 am   BACKBONE|DICT|INTERRES
    85   42  106 1    
    86   43   44 2    
    87   43   45 1    
    88   45   46 1    
    89   45   49 1    
    90   45  107 1    
    91   46   47 1    
    92   46  108 1    
    93   46  109 1    
    94   47   48 1    
    95   48  110 1    
    96   48  111 1    
    97   49   50 am   BACKBONE|DICT|INTERRES
    98   49  112 1    
    99   50   51 2    
   100   50   52 1    
   101   52   53 1    
   102   52   54 1    
   103   52  113 1    
   104   53  114 1    
   105   53  115 1    
   106   53  116 1    
   107   54   55 am   BACKBONE|DICT|INTERRES
   108   54  117 1    
   109   55   56 2    
   110   55   57 1    
   111   57   58 1    
   112   57   59 1    
   113   57  118 1    
   114   58  119 1    
   115   58  120 1    
   116   58  121 1    
   117   59   60 am   BACKBONE|DICT|INTERRES
   118   59  122 1    
   119   60   61 2    
   120   60   62 1    
   121   62   63 1    
   122   62   64 1    
   123   62  123 1    
   124   63  124 1    
   125   63  125 1    
   126   63  126 1    
   127   64   65 am   BACKBONE|DICT|INTERRES
   128   64  127 1    
   129   65   66 2    
@<TRIPOS>SUBSTRUCTURE
     1 UNK         1 GROUP             0       ****    0 ROOT    
