@<TRIPOS>MOLECULE
3R135
127   129    1
SMALL
USER_CHARGES


@<TRIPOS>ATOM
      1 CA        -81.1780   29.0525  -75.5585 C.3       0 UNK        -0.1998 
      2 C         -80.8077   27.8645  -74.6845 C.2       0 UNK         0.4909 
      3 O         -79.8587   27.1410  -74.9947 O.2       0 UNK        -0.5240 
      4 N         -81.5505   27.6611  -73.5902 N.am      1 UNK        -0.4739 
      5 CA        -81.3929   26.5236  -72.6775 C.3       1 UNK         0.0864 
      6 C6        -82.1763   26.7081  -71.3541 C.3       11 UNK        -0.0881 
      7 S7        -81.9294   28.3317  -70.5555 S.3       11 UNK        -0.2682 
      8 C8        -80.3109   28.1362  -69.7340 C.3       11 UNK         0.0289 
      9 C9        -79.1127   28.4796  -70.6193 C.ar      11 UNK        -0.0687 
     10 C10       -79.1312   29.5938  -71.4693 C.ar      11 UNK        -0.0823 
     11 C11       -78.0070   29.9455  -72.2247 C.ar      11 UNK        -0.0830 
     12 C12       -76.8457   29.1751  -72.1048 C.ar      11 UNK        -0.1021 
     13 C13       -76.8087   28.0609  -71.2641 C.ar      11 UNK        -0.0753 
     14 C14       -77.9453   27.7145  -70.5280 C.ar      11 UNK        -0.0933 
     15 C15       -75.5331   27.2423  -71.1546 C.3       11 UNK         0.0166 
     16 S16       -74.3047   28.0718  -70.0982 S.3       11 UNK        -0.2615 
     17 C17       -72.8178   27.9720  -71.1511 C.3       11 UNK        -0.0865 
     18 CA        -72.6840   29.1899  -72.1099 C.3       10 UNK         0.0862 
     19 C         -71.8556   30.3500  -71.4808 C.2       10 UNK         0.5551 
     20 N         -70.7067   30.7202  -72.0343 N.am      10 UNK        -0.7319 
     21 O         -72.2648   30.9305  -70.4789 O.2       10 UNK        -0.5018 
     22 N         -72.2279   28.7561  -73.4382 N.am      10 UNK        -0.4509 
     23 C         -72.4123   29.4170  -74.5856 C.2       10 UNK         0.4899 
     24 O         -73.0115   30.4886  -74.6639 O.2       10 UNK        -0.4839 
     25 CA        -71.8407   28.7813  -75.8697 C.3       9 UNK         0.0222 
     26 CB        -70.3864   29.2328  -76.1074 C.3       9 UNK        -0.1966 
     27 N         -71.9727   27.3167  -75.9507 N.am      9 UNK        -0.4218 
     28 C         -71.3971   26.3701  -75.1925 C.2       9 UNK         0.5020 
     29 O         -70.6032   26.6180  -74.2831 O.2       9 UNK        -0.5274 
     30 CA        -71.7905   24.9060  -75.4506 C.3       8 UNK         0.0270 
     31 CB        -72.2524   24.2238  -74.1486 C.3       8 UNK        -0.1976 
     32 N         -72.8581   24.7793  -76.4480 N.am      8 UNK        -0.4313 
     33 C         -72.7571   24.0886  -77.5906 C.2       8 UNK         0.5041 
     34 O         -71.7262   23.5259  -77.9628 O.2       8 UNK        -0.5577 
     35 CA        -74.0156   23.9795  -78.4666 C.3       7 UNK         0.0284 
     36 CB        -74.8721   22.7803  -78.0278 C.3       7 UNK        -0.1958 
     37 N         -74.8477   25.1845  -78.4922 N.am      7 UNK        -0.4454 
     38 C         -74.5136   26.3264  -79.1100 C.2       7 UNK         0.5089 
     39 O         -73.4089   26.5389  -79.6094 O.2       7 UNK        -0.5125 
     40 CA        -75.5995   27.4093  -79.1940 C.3       6 UNK         0.0408 
     41 CB        -76.6953   27.0094  -80.1963 C.3       6 UNK        -0.1791 
     42 N         -76.1973   27.6427  -77.8814 N.am      6 UNK        -0.4762 
     43 C         -75.8191   28.6138  -77.0372 C.2       6 UNK         0.5007 
     44 O         -75.0051   29.4883  -77.3312 O.2       6 UNK        -0.5032 
     45 CA        -76.4335   28.5978  -75.6195 C.3       5 UNK         0.0783 
     46 C46       -77.5480   29.6676  -75.4636 C.3       11 UNK        -0.0857 
     47 S47       -76.9676   31.1556  -74.5863 S.3       11 UNK        -0.2512 
     48 C48       -78.0699   31.1835  -73.1237 C.3       11 UNK         0.0225 
     49 N         -76.8941   27.2620  -75.2173 N.am      5 UNK        -0.4615 
     50 C         -76.0709   26.2270  -75.0016 C.2       4 UNK         0.5053 
     51 O         -74.8478   26.3012  -75.0993 O.2       4 UNK        -0.5105 
     52 CA        -76.6990   24.8648  -74.6802 C.3       4 UNK         0.0263 
     53 CB        -76.8117   24.6577  -73.1636 C.3       4 UNK        -0.1981 
     54 N         -78.0096   24.6560  -75.2894 N.am      4 UNK        -0.4224 
     55 C         -78.2826   24.6117  -76.6003 C.2       3 UNK         0.4895 
     56 O         -77.4464   24.8564  -77.4715 O.2       3 UNK        -0.5091 
     57 CA        -79.7297   24.2615  -77.0107 C.3       3 UNK         0.0250 
     58 CB        -79.7657   23.2209  -78.1484 C.3       3 UNK        -0.1996 
     59 N         -80.5912   23.8612  -75.8848 N.am      3 UNK        -0.4254 
     60 C         -80.4776   22.7903  -75.0812 C.2       2 UNK         0.5004 
     61 O         -79.6855   21.8677  -75.2748 O.2       2 UNK        -0.5226 
     62 CA        -81.3225   22.8211  -73.7882 C.3       2 UNK         0.0269 
     63 CB        -80.9750   21.6710  -72.8238 C.3       2 UNK        -0.1926 
     64 N         -81.1532   24.1002  -73.0810 N.am      2 UNK        -0.4687 
     65 C         -81.8208   25.2205  -73.3858 C.2       1 UNK         0.5165 
     66 O         -82.7237   25.2489  -74.2270 O.2       1 UNK        -0.5079 
     67 H67       -82.2529   29.2313  -75.5461 H         1 UNK         0.0900 
     68 H68       -80.6760   29.9536  -75.2084 H         1 UNK         0.0900 
     69 H69       -80.8794   28.8722  -76.5909 H         1 UNK         0.0900 
     70 H70       -82.3173   28.2833  -73.3798 H         1 UNK         0.2959 
     71 H71       -80.3297   26.4482  -72.4378 H         1 UNK         0.1079 
     72 H72       -81.9176   25.9213  -70.6430 H         1 UNK         0.0837 
     73 H73       -83.2488   26.6058  -71.5336 H         1 UNK         0.0837 
     74 H74       -80.2277   27.1220  -69.3406 H         1 UNK         0.0685 
     75 H75       -80.2875   28.8003  -68.8692 H         1 UNK         0.0685 
     76 H76       -80.0233   30.2016  -71.5314 H         1 UNK         0.1434 
     77 H77       -75.9580   29.4443  -72.6570 H         1 UNK         0.1329 
     78 H78       -77.9110   26.8618  -69.8636 H         1 UNK         0.1335 
     79 H79       -75.1319   27.0845  -72.1567 H         1 UNK         0.0680 
     80 H80       -75.7402   26.2532  -70.7439 H         1 UNK         0.0680 
     81 H81       -72.8615   27.0345  -71.7085 H         1 UNK         0.1032 
     82 H82       -71.9391   27.8716  -70.5108 H         1 UNK         0.1032 
     83 H83       -73.6800   29.6062  -72.2672 H         1 UNK         0.0461 
     84 H84       -70.3641   30.2512  -72.8569 H         1 UNK         0.3453 
     85 H85       -70.1794   31.4748  -71.6238 H         1 UNK         0.3453 
     86 H86       -71.6634   27.9113  -73.4801 H         1 UNK         0.2984 
     87 H87       -72.4347   29.1692  -76.6978 H         1 UNK         0.0554 
     88 H88       -70.3199   30.3209  -76.1471 H         1 UNK         0.0847 
     89 H89       -70.0032   28.8513  -77.0538 H         1 UNK         0.0847 
     90 H90       -69.7163   28.8976  -75.3154 H         1 UNK         0.0847 
     91 H91       -72.6293   26.9922  -76.6459 H         1 UNK         0.3141 
     92 H92       -70.8834   24.4034  -75.7918 H         1 UNK         0.0743 
     93 H93       -71.4635   24.2361  -73.3955 H         1 UNK         0.0784 
     94 H94       -73.1219   24.7216  -73.7177 H         1 UNK         0.0784 
     95 H95       -72.5155   23.1801  -74.3208 H         1 UNK         0.0784 
     96 H96       -73.7398   25.2223  -76.1984 H         1 UNK         0.3213 
     97 H97       -73.6804   23.7916  -79.4892 H         1 UNK         0.0855 
     98 H98       -75.2576   22.9060  -77.0161 H         1 UNK         0.0814 
     99 H99       -74.2901   21.8578  -78.0428 H         1 UNK         0.0814 
    100 H100      -75.7240   22.6364  -78.6929 H         1 UNK         0.0814 
    101 H101      -75.7923   25.0885  -78.1208 H         1 UNK         0.3105 
    102 H102      -75.1336   28.3250  -79.5646 H         1 UNK         0.0547 
    103 H103      -77.2180   26.1010  -79.8950 H         1 UNK         0.0837 
    104 H104      -77.4378   27.8000  -80.3042 H         1 UNK         0.0837 
    105 H105      -76.2708   26.8279  -81.1846 H         1 UNK         0.0837 
    106 H106      -76.8481   26.9404  -77.5502 H         1 UNK         0.3020 
    107 H107      -75.6097   28.8454  -74.9458 H         1 UNK         0.1245 
    108 H108      -78.3747   29.2624  -74.8874 H         1 UNK         0.0781 
    109 H109      -77.9840   29.9628  -76.4202 H         1 UNK         0.0781 
    110 H110      -79.0920   31.3356  -73.4742 H         1 UNK         0.0836 
    111 H111      -77.8195   32.0574  -72.5213 H         1 UNK         0.0836 
    112 H112      -77.8986   27.1268  -75.1285 H         1 UNK         0.3022 
    113 H113      -76.0314   24.0979  -75.0764 H         1 UNK         0.0747 
    114 H114      -77.2173   23.6741  -72.9255 H         1 UNK         0.0793 
    115 H115      -75.8302   24.7194  -72.6925 H         1 UNK         0.0793 
    116 H116      -77.4530   25.4085  -72.6999 H         1 UNK         0.0793 
    117 H117      -78.7782   24.4931  -74.6583 H         1 UNK         0.3047 
    118 H118      -80.1571   25.1885  -77.3960 H         1 UNK         0.0822 
    119 H119      -79.2489   23.5932  -79.0339 H         1 UNK         0.0807 
    120 H120      -80.7891   22.9912  -78.4446 H         1 UNK         0.0807 
    121 H121      -79.2800   22.2877  -77.8621 H         1 UNK         0.0807 
    122 H122      -81.2830   24.5521  -75.6128 H         1 UNK         0.2946 
    123 H123      -82.3671   22.6998  -74.0854 H         1 UNK         0.1144 
    124 H124      -81.6043   21.6961  -71.9340 H         1 UNK         0.0793 
    125 H125      -79.9341   21.7137  -72.5005 H         1 UNK         0.0793 
    126 H126      -81.1298   20.7015  -73.2993 H         1 UNK         0.0793 
    127 H127      -80.4299   24.1314  -72.3762 H         1 UNK         0.2896 
@<TRIPOS>BOND
     1    1    2 1    
     2    1   67 1    
     3    1   68 1    
     4    1   69 1    
     5    2    3 2    
     6    2    4 am   BACKBONE|DICT|INTERRES
     7    4    5 1    
     8    4   70 1    
     9    5    6 1    
    10    5   65 1    
    11    5   71 1    
    12    6    7 1    
    13    6   72 1    
    14    6   73 1    
    15    7    8 1    
    16    8    9 1    
    17    8   74 1    
    18    8   75 1    
    19    9   10 ar   
    20    9   14 ar   
    21   10   11 ar   
    22   10   76 1    
    23   11   12 ar   
    24   11   48 1    
    25   12   13 ar   
    26   12   77 1    
    27   13   14 ar   
    28   13   15 1    
    29   14   78 1    
    30   15   16 1    
    31   15   79 1    
    32   15   80 1    
    33   16   17 1    
    34   17   18 1    
    35   17   81 1    
    36   17   82 1    
    37   18   19 1    
    38   18   22 1    
    39   18   83 1    
    40   19   20 am   BACKBONE|DICT|INTERRES
    41   19   21 2    
    42   20   84 1    
    43   20   85 1    
    44   22   23 am   BACKBONE|DICT|INTERRES
    45   22   86 1    
    46   23   24 2    
    47   23   25 1    
    48   25   26 1    
    49   25   27 1    
    50   25   87 1    
    51   26   88 1    
    52   26   89 1    
    53   26   90 1    
    54   27   28 am   BACKBONE|DICT|INTERRES
    55   27   91 1    
    56   28   29 2    
    57   28   30 1    
    58   30   31 1    
    59   30   32 1    
    60   30   92 1    
    61   31   93 1    
    62   31   94 1    
    63   31   95 1    
    64   32   33 am   BACKBONE|DICT|INTERRES
    65   32   96 1    
    66   33   34 2    
    67   33   35 1    
    68   35   36 1    
    69   35   37 1    
    70   35   97 1    
    71   36   98 1    
    72   36   99 1    
    73   36  100 1    
    74   37   38 am   BACKBONE|DICT|INTERRES
    75   37  101 1    
    76   38   39 2    
    77   38   40 1    
    78   40   41 1    
    79   40   42 1    
    80   40  102 1    
    81   41  103 1    
    82   41  104 1    
    83   41  105 1    
    84   42   43 am   BACKBONE|DICT|INTERRES
    85   42  106 1    
    86   43   44 2    
    87   43   45 1    
    88   45   46 1    
    89   45   49 1    
    90   45  107 1    
    91   46   47 1    
    92   46  108 1    
    93   46  109 1    
    94   47   48 1    
    95   48  110 1    
    96   48  111 1    
    97   49   50 am   BACKBONE|DICT|INTERRES
    98   49  112 1    
    99   50   51 2    
   100   50   52 1    
   101   52   53 1    
   102   52   54 1    
   103   52  113 1    
   104   53  114 1    
   105   53  115 1    
   106   53  116 1    
   107   54   55 am   BACKBONE|DICT|INTERRES
   108   54  117 1    
   109   55   56 2    
   110   55   57 1    
   111   57   58 1    
   112   57   59 1    
   113   57  118 1    
   114   58  119 1    
   115   58  120 1    
   116   58  121 1    
   117   59   60 am   BACKBONE|DICT|INTERRES
   118   59  122 1    
   119   60   61 2    
   120   60   62 1    
   121   62   63 1    
   122   62   64 1    
   123   62  123 1    
   124   63  124 1    
   125   63  125 1    
   126   63  126 1    
   127   64   65 am   BACKBONE|DICT|INTERRES
   128   64  127 1    
   129   65   66 2    
@<TRIPOS>SUBSTRUCTURE
     1 UNK         1 GROUP             0       ****    0 ROOT    
