@<TRIPOS>MOLECULE
3R135
127   129    1
SMALL
USER_CHARGES


@<TRIPOS>ATOM
      1 CA        -85.3379   27.3860  -73.7308 C.3       0 UNK        -0.1998 
      2 C         -84.3458   27.9544  -74.7341 C.2       0 UNK         0.4909 
      3 O         -84.7352   28.3091  -75.8470 O.2       0 UNK        -0.5240 
      4 N         -83.0653   28.0418  -74.3498 N.am      1 UNK        -0.4739 
      5 CA        -81.9777   28.5744  -75.1829 C.3       1 UNK         0.0864 
      6 C6        -80.7508   28.9802  -74.3324 C.3       11 UNK        -0.0881 
      7 S7        -81.0759   30.3727  -73.2026 S.3       11 UNK        -0.2682 
      8 C8        -80.5387   29.6996  -71.5919 C.3       11 UNK         0.0289 
      9 C9        -79.0926   29.2011  -71.5581 C.ar      11 UNK        -0.0687 
     10 C10       -78.7994   28.0056  -70.8919 C.ar      11 UNK        -0.0823 
     11 C11       -77.4856   27.5358  -70.8132 C.ar      11 UNK        -0.0830 
     12 C12       -76.4650   28.2621  -71.4244 C.ar      11 UNK        -0.1021 
     13 C13       -76.7312   29.4547  -72.0986 C.ar      11 UNK        -0.0753 
     14 C14       -78.0488   29.9264  -72.1507 C.ar      11 UNK        -0.0933 
     15 C15       -75.6052   30.2047  -72.8038 C.3       11 UNK         0.0166 
     16 S16       -74.4194   30.9790  -71.6577 S.3       11 UNK        -0.2615 
     17 C17       -73.1333   29.6902  -71.4499 C.3       11 UNK        -0.0865 
     18 CA        -71.9356   29.8587  -72.4228 C.3       10 UNK         0.0862 
     19 C         -70.6966   29.0217  -71.9808 C.2       10 UNK         0.5551 
     20 N         -70.0202   28.2956  -72.8641 N.am      10 UNK        -0.7319 
     21 O         -70.3268   29.0424  -70.8093 O.2       10 UNK        -0.5018 
     22 N         -72.3393   29.5996  -73.8144 N.am      10 UNK        -0.4509 
     23 C         -71.8999   30.2892  -74.8733 C.2       10 UNK         0.4899 
     24 O         -71.1578   31.2699  -74.7929 O.2       10 UNK        -0.4839 
     25 CA        -72.3629   29.7858  -76.2544 C.3       9 UNK         0.0222 
     26 CB        -71.6095   30.4574  -77.4220 C.3       9 UNK        -0.1966 
     27 N         -72.3188   28.3242  -76.3946 N.am      9 UNK        -0.4218 
     28 C         -71.2545   27.5194  -76.2386 C.2       9 UNK         0.5020 
     29 O         -70.1478   27.9249  -75.8803 O.2       9 UNK        -0.5274 
     30 CA        -71.4318   26.0065  -76.4923 C.3       8 UNK         0.0270 
     31 CB        -71.1072   25.2083  -75.2179 C.3       8 UNK        -0.1976 
     32 N         -72.7667   25.6259  -76.9618 N.am      8 UNK        -0.4313 
     33 C         -73.2507   25.8305  -78.1947 C.2       8 UNK         0.5041 
     34 O         -72.5844   26.2804  -79.1271 O.2       8 UNK        -0.5577 
     35 CA        -74.7524   25.5486  -78.3993 C.3       7 UNK         0.0284 
     36 CB        -74.9925   24.0785  -78.7766 C.3       7 UNK        -0.1958 
     37 N         -75.5574   25.9010  -77.2226 N.am      7 UNK        -0.4454 
     38 C         -75.6590   27.1407  -76.7203 C.2       7 UNK         0.5089 
     39 O         -75.1524   28.1327  -77.2419 O.2       7 UNK        -0.5125 
     40 CA        -76.3769   27.2940  -75.3755 C.3       6 UNK         0.0408 
     41 CB        -77.8942   27.3766  -75.5626 C.3       6 UNK        -0.1791 
     42 N         -76.0398   26.2047  -74.4602 N.am      6 UNK        -0.4762 
     43 C         -74.8993   26.1245  -73.7582 C.2       6 UNK         0.5007 
     44 O         -74.0372   27.0066  -73.7554 O.2       6 UNK        -0.5032 
     45 CA        -74.6575   24.8245  -72.9571 C.3       5 UNK         0.0783 
     46 C46       -75.0461   24.9592  -71.4618 C.3       11 UNK        -0.0857 
     47 S47       -76.8462   24.8485  -71.1398 S.3       11 UNK        -0.2512 
     48 C48       -77.1595   26.2650  -70.0409 C.3       11 UNK         0.0225 
     49 N         -75.2892   23.6523  -73.5708 N.am      5 UNK        -0.4615 
     50 C         -74.9444   23.1142  -74.7460 C.2       4 UNK         0.5053 
     51 O         -73.9971   23.5110  -75.4217 O.2       4 UNK        -0.5105 
     52 CA        -75.8457   21.9856  -75.2815 C.3       4 UNK         0.0263 
     53 CB        -75.3575   20.6210  -74.7714 C.3       4 UNK        -0.1981 
     54 N         -77.2661   22.1595  -74.9448 N.am      4 UNK        -0.4224 
     55 C         -78.0120   23.2077  -75.3226 C.2       3 UNK         0.4895 
     56 O         -77.5736   24.1323  -76.0095 O.2       3 UNK        -0.5091 
     57 CA        -79.4528   23.2568  -74.7812 C.3       3 UNK         0.0250 
     58 CB        -79.4564   23.5890  -73.2802 C.3       3 UNK        -0.1996 
     59 N         -80.2819   24.2531  -75.4631 N.am      3 UNK        -0.4254 
     60 C         -80.7815   24.1315  -76.6996 C.2       2 UNK         0.5004 
     61 O         -80.6068   23.1379  -77.4072 O.2       2 UNK        -0.5226 
     62 CA        -81.6449   25.2923  -77.2310 C.3       2 UNK         0.0269 
     63 CB        -82.9962   24.7783  -77.7616 C.3       2 UNK        -0.1926 
     64 N         -81.9074   26.3242  -76.2168 N.am      2 UNK        -0.4687 
     65 C         -81.5511   27.6134  -76.3188 C.2       1 UNK         0.5165 
     66 O         -80.9044   28.0635  -77.2653 O.2       1 UNK        -0.5079 
     67 H67       -85.8135   26.4939  -74.1376 H         1 UNK         0.0900 
     68 H68       -84.8582   27.1161  -72.7902 H         1 UNK         0.0900 
     69 H69       -86.1152   28.1189  -73.5164 H         1 UNK         0.0900 
     70 H70       -82.8058   27.7592  -73.4155 H         1 UNK         0.2959 
     71 H71       -82.3494   29.4745  -75.6785 H         1 UNK         0.1079 
     72 H72       -80.3889   28.1216  -73.7655 H         1 UNK         0.0837 
     73 H73       -79.9296   29.3032  -74.9732 H         1 UNK         0.0837 
     74 H74       -80.6537   30.4769  -70.8357 H         1 UNK         0.0685 
     75 H75       -81.2258   28.8985  -71.3149 H         1 UNK         0.0685 
     76 H76       -79.5944   27.4456  -70.4184 H         1 UNK         0.1434 
     77 H77       -75.4592   27.8874  -71.3758 H         1 UNK         0.1329 
     78 H78       -78.2657   30.8527  -72.6644 H         1 UNK         0.1335 
     79 H79       -75.0674   29.5278  -73.4638 H         1 UNK         0.0680 
     80 H80       -76.0186   30.9841  -73.4455 H         1 UNK         0.0680 
     81 H81       -72.7988   29.7597  -70.4131 H         1 UNK         0.1032 
     82 H82       -73.5482   28.6916  -71.5570 H         1 UNK         0.1032 
     83 H83       -71.6092   30.8968  -72.3389 H         1 UNK         0.0461 
     84 H84       -69.2189   27.7711  -72.5522 H         1 UNK         0.3453 
     85 H85       -70.2628   28.3019  -73.8475 H         1 UNK         0.3453 
     86 H86       -72.9105   28.7740  -73.9618 H         1 UNK         0.2984 
     87 H87       -73.4133   30.0674  -76.3377 H         1 UNK         0.0554 
     88 H88       -71.7339   31.5407  -77.3984 H         1 UNK         0.0847 
     89 H89       -71.9834   30.1111  -78.3855 H         1 UNK         0.0847 
     90 H90       -70.5392   30.2514  -77.3837 H         1 UNK         0.0847 
     91 H91       -73.1973   27.9048  -76.6786 H         1 UNK         0.3141 
     92 H92       -70.7102   25.7250  -77.2618 H         1 UNK         0.0743 
     93 H93       -71.7627   25.4867  -74.3929 H         1 UNK         0.0784 
     94 H94       -71.2087   24.1353  -75.3821 H         1 UNK         0.0784 
     95 H95       -70.0821   25.3888  -74.8918 H         1 UNK         0.0784 
     96 H96       -73.3612   25.1438  -76.2929 H         1 UNK         0.3213 
     97 H97       -75.0950   26.1724  -79.2277 H         1 UNK         0.0855 
     98 H98       -74.6215   23.3970  -78.0119 H         1 UNK         0.0814 
     99 H99       -74.4797   23.8297  -79.7066 H         1 UNK         0.0814 
    100 H100      -76.0529   23.8728  -78.9248 H         1 UNK         0.0814 
    101 H101      -76.0633   25.1526  -76.7569 H         1 UNK         0.3105 
    102 H102      -76.0546   28.2342  -74.9319 H         1 UNK         0.0547 
    103 H103      -78.1603   28.2833  -76.1063 H         1 UNK         0.0837 
    104 H104      -78.2960   26.5387  -76.1301 H         1 UNK         0.0837 
    105 H105      -78.3943   27.4027  -74.5965 H         1 UNK         0.0837 
    106 H106      -76.6686   25.4130  -74.4549 H         1 UNK         0.3020 
    107 H107      -73.5789   24.6558  -72.9923 H         1 UNK         0.1245 
    108 H108      -74.6261   25.8675  -71.0297 H         1 UNK         0.0781 
    109 H109      -74.5792   24.1454  -70.9049 H         1 UNK         0.0781 
    110 H110      -76.3020   26.4313  -69.3872 H         1 UNK         0.0836 
    111 H111      -77.9893   26.0073  -69.3811 H         1 UNK         0.0836 
    112 H112      -76.0827   23.2740  -73.0742 H         1 UNK         0.3022 
    113 H113      -75.7642   21.9909  -76.3701 H         1 UNK         0.0747 
    114 H114      -75.9257   19.8040  -75.2166 H         1 UNK         0.0793 
    115 H115      -74.3093   20.4613  -75.0291 H         1 UNK         0.0793 
    116 H116      -75.4426   20.5390  -73.6871 H         1 UNK         0.0793 
    117 H117      -77.6888   21.4387  -74.3770 H         1 UNK         0.3047 
    118 H118      -79.9028   22.2724  -74.9275 H         1 UNK         0.0822 
    119 H119      -78.8574   22.8795  -72.7081 H         1 UNK         0.0807 
    120 H120      -80.4661   23.5540  -72.8704 H         1 UNK         0.0807 
    121 H121      -79.0564   24.5858  -73.0901 H         1 UNK         0.0807 
    122 H122      -80.4414   25.1197  -74.9738 H         1 UNK         0.2946 
    123 H123      -81.0910   25.7161  -78.0718 H         1 UNK         0.1144 
    124 H124      -83.5944   25.5921  -78.1721 H         1 UNK         0.0793 
    125 H125      -83.5805   24.2964  -76.9769 H         1 UNK         0.0793 
    126 H126      -82.8560   24.0488  -78.5604 H         1 UNK         0.0793 
    127 H127      -82.4544   26.0441  -75.4147 H         1 UNK         0.2896 
@<TRIPOS>BOND
     1    1    2 1    
     2    1   67 1    
     3    1   68 1    
     4    1   69 1    
     5    2    3 2    
     6    2    4 am   BACKBONE|DICT|INTERRES
     7    4    5 1    
     8    4   70 1    
     9    5    6 1    
    10    5   65 1    
    11    5   71 1    
    12    6    7 1    
    13    6   72 1    
    14    6   73 1    
    15    7    8 1    
    16    8    9 1    
    17    8   74 1    
    18    8   75 1    
    19    9   10 ar   
    20    9   14 ar   
    21   10   11 ar   
    22   10   76 1    
    23   11   12 ar   
    24   11   48 1    
    25   12   13 ar   
    26   12   77 1    
    27   13   14 ar   
    28   13   15 1    
    29   14   78 1    
    30   15   16 1    
    31   15   79 1    
    32   15   80 1    
    33   16   17 1    
    34   17   18 1    
    35   17   81 1    
    36   17   82 1    
    37   18   19 1    
    38   18   22 1    
    39   18   83 1    
    40   19   20 am   BACKBONE|DICT|INTERRES
    41   19   21 2    
    42   20   84 1    
    43   20   85 1    
    44   22   23 am   BACKBONE|DICT|INTERRES
    45   22   86 1    
    46   23   24 2    
    47   23   25 1    
    48   25   26 1    
    49   25   27 1    
    50   25   87 1    
    51   26   88 1    
    52   26   89 1    
    53   26   90 1    
    54   27   28 am   BACKBONE|DICT|INTERRES
    55   27   91 1    
    56   28   29 2    
    57   28   30 1    
    58   30   31 1    
    59   30   32 1    
    60   30   92 1    
    61   31   93 1    
    62   31   94 1    
    63   31   95 1    
    64   32   33 am   BACKBONE|DICT|INTERRES
    65   32   96 1    
    66   33   34 2    
    67   33   35 1    
    68   35   36 1    
    69   35   37 1    
    70   35   97 1    
    71   36   98 1    
    72   36   99 1    
    73   36  100 1    
    74   37   38 am   BACKBONE|DICT|INTERRES
    75   37  101 1    
    76   38   39 2    
    77   38   40 1    
    78   40   41 1    
    79   40   42 1    
    80   40  102 1    
    81   41  103 1    
    82   41  104 1    
    83   41  105 1    
    84   42   43 am   BACKBONE|DICT|INTERRES
    85   42  106 1    
    86   43   44 2    
    87   43   45 1    
    88   45   46 1    
    89   45   49 1    
    90   45  107 1    
    91   46   47 1    
    92   46  108 1    
    93   46  109 1    
    94   47   48 1    
    95   48  110 1    
    96   48  111 1    
    97   49   50 am   BACKBONE|DICT|INTERRES
    98   49  112 1    
    99   50   51 2    
   100   50   52 1    
   101   52   53 1    
   102   52   54 1    
   103   52  113 1    
   104   53  114 1    
   105   53  115 1    
   106   53  116 1    
   107   54   55 am   BACKBONE|DICT|INTERRES
   108   54  117 1    
   109   55   56 2    
   110   55   57 1    
   111   57   58 1    
   112   57   59 1    
   113   57  118 1    
   114   58  119 1    
   115   58  120 1    
   116   58  121 1    
   117   59   60 am   BACKBONE|DICT|INTERRES
   118   59  122 1    
   119   60   61 2    
   120   60   62 1    
   121   62   63 1    
   122   62   64 1    
   123   62  123 1    
   124   63  124 1    
   125   63  125 1    
   126   63  126 1    
   127   64   65 am   BACKBONE|DICT|INTERRES
   128   64  127 1    
   129   65   66 2    
@<TRIPOS>SUBSTRUCTURE
     1 UNK         1 GROUP             0       ****    0 ROOT    
