@<TRIPOS>MOLECULE
3R135
127   129    1
SMALL
USER_CHARGES


@<TRIPOS>ATOM
      1 CA        -83.4056   22.8291  -73.8895 C.3       0 UNK        -0.1998 
      2 C         -83.0135   24.2466  -74.2762 C.2       0 UNK         0.4909 
      3 O         -83.3907   24.7073  -75.3538 O.2       0 UNK        -0.5240 
      4 N         -82.2560   24.9330  -73.4073 N.am      1 UNK        -0.4739 
      5 CA        -81.7420   26.2996  -73.5772 C.3       1 UNK         0.0864 
      6 C6        -80.9116   26.7384  -72.3433 C.3       11 UNK        -0.0881 
      7 S7        -81.1001   28.5089  -71.9264 S.3       11 UNK        -0.2682 
      8 C8        -79.6200   29.2985  -72.6629 C.3       11 UNK         0.0289 
      9 C9        -78.2545   28.9106  -72.0838 C.ar      11 UNK        -0.0687 
     10 C10       -78.0933   27.9363  -71.0922 C.ar      11 UNK        -0.0823 
     11 C11       -76.8226   27.5055  -70.7094 C.ar      11 UNK        -0.0830 
     12 C12       -75.6929   28.1163  -71.2561 C.ar      11 UNK        -0.1021 
     13 C13       -75.8301   29.1389  -72.1995 C.ar      11 UNK        -0.0753 
     14 C14       -77.1120   29.5238  -72.6109 C.ar      11 UNK        -0.0933 
     15 C15       -74.5984   29.7654  -72.8419 C.3       11 UNK         0.0166 
     16 S16       -73.4337   30.4404  -71.6118 S.3       11 UNK        -0.2615 
     17 C17       -72.9632   32.0437  -72.3555 C.3       11 UNK        -0.0865 
     18 CA        -71.7094   31.9916  -73.2697 C.3       10 UNK         0.0862 
     19 C         -70.3902   31.7185  -72.4852 C.2       10 UNK         0.5551 
     20 N         -69.5802   30.7306  -72.8498 N.am      10 UNK        -0.7319 
     21 O         -70.0856   32.4345  -71.5342 O.2       10 UNK        -0.5018 
     22 N         -71.9287   31.1161  -74.4295 N.am      10 UNK        -0.4509 
     23 C         -71.3563   31.2683  -75.6292 C.2       10 UNK         0.4899 
     24 O         -70.6383   32.2237  -75.9287 O.2       10 UNK        -0.4839 
     25 CA        -71.6377   30.1580  -76.6620 C.3       9 UNK         0.0222 
     26 CB        -70.6208   30.1521  -77.8230 C.3       9 UNK        -0.1966 
     27 N         -71.7502   28.8156  -76.0733 N.am      9 UNK        -0.4218 
     28 C         -70.8202   28.1651  -75.3517 C.2       9 UNK         0.5020 
     29 O         -69.7440   28.6656  -75.0219 O.2       9 UNK        -0.5274 
     30 CA        -71.1341   26.7284  -74.8864 C.3       8 UNK         0.0270 
     31 CB        -71.3476   26.7009  -73.3632 C.3       8 UNK        -0.1976 
     32 N         -72.2974   26.1314  -75.5505 N.am      8 UNK        -0.4313 
     33 C         -72.3269   25.7398  -76.8355 C.2       8 UNK         0.5041 
     34 O         -71.3316   25.7294  -77.5606 O.2       8 UNK        -0.5577 
     35 CA        -73.6868   25.3221  -77.4386 C.3       7 UNK         0.0284 
     36 CB        -73.7793   23.7911  -77.5395 C.3       7 UNK        -0.1958 
     37 N         -74.8592   25.8189  -76.7115 N.am      7 UNK        -0.4454 
     38 C         -75.1280   27.1045  -76.4351 C.2       7 UNK         0.5089 
     39 O         -74.4651   28.0490  -76.8648 O.2       7 UNK        -0.5125 
     40 CA        -76.2687   27.3830  -75.4379 C.3       6 UNK         0.0408 
     41 CB        -77.5395   27.7753  -76.1944 C.3       6 UNK        -0.1791 
     42 N         -76.5561   26.2678  -74.5225 N.am      6 UNK        -0.4762 
     43 C         -75.6473   25.6806  -73.7244 C.2       6 UNK         0.5007 
     44 O         -74.5022   26.1134  -73.5890 O.2       6 UNK        -0.5032 
     45 CA        -75.9937   24.3264  -73.0692 C.3       5 UNK         0.0783 
     46 C46       -75.7929   24.3093  -71.5277 C.3       11 UNK        -0.0857 
     47 S47       -77.2469   24.7891  -70.5304 S.3       11 UNK        -0.2512 
     48 C48       -76.6926   26.3396  -69.7455 C.3       11 UNK         0.0225 
     49 N         -77.2586   23.7155  -73.4971 N.am      5 UNK        -0.4615 
     50 C         -77.5497   23.2858  -74.7334 C.2       4 UNK         0.5053 
     51 O         -76.8085   23.4595  -75.7031 O.2       4 UNK        -0.5105 
     52 CA        -78.8642   22.5110  -74.9196 C.3       4 UNK         0.0263 
     53 CB        -79.6967   22.3542  -73.6298 C.3       4 UNK        -0.1981 
     54 N         -79.6811   23.1559  -75.9478 N.am      4 UNK        -0.4224 
     55 C         -80.2082   22.5331  -77.0124 C.2       3 UNK         0.4895 
     56 O         -80.0247   21.3389  -77.2548 O.2       3 UNK        -0.5091 
     57 CA        -81.1145   23.3397  -77.9656 C.3       3 UNK         0.0250 
     58 CB        -82.4809   22.6511  -78.1360 C.3       3 UNK        -0.1996 
     59 N         -81.3447   24.7149  -77.5206 N.am      3 UNK        -0.4254 
     60 C         -80.6413   25.7824  -77.9222 C.2       2 UNK         0.5004 
     61 O         -79.7338   25.7342  -78.7523 O.2       2 UNK        -0.5226 
     62 CA        -80.9951   27.1364  -77.2745 C.3       2 UNK         0.0269 
     63 CB        -82.0095   27.8923  -78.1474 C.3       2 UNK        -0.1926 
     64 N         -81.5225   27.0350  -75.9082 N.am      2 UNK        -0.4687 
     65 C         -80.9212   26.4242  -74.8769 C.2       1 UNK         0.5165 
     66 O         -79.8053   25.9011  -74.9425 O.2       1 UNK        -0.5079 
     67 H67       -83.0174   22.1207  -74.6207 H         1 UNK         0.0900 
     68 H68       -84.4909   22.7344  -73.8670 H         1 UNK         0.0900 
     69 H69       -83.0205   22.5509  -72.9088 H         1 UNK         0.0900 
     70 H70       -81.9893   24.4818  -72.5446 H         1 UNK         0.2959 
     71 H71       -82.6194   26.9453  -73.6556 H         1 UNK         0.1079 
     72 H72       -81.2504   26.2001  -71.4567 H         1 UNK         0.0837 
     73 H73       -79.8612   26.4640  -72.4491 H         1 UNK         0.0837 
     74 H74       -79.7392   30.3783  -72.5639 H         1 UNK         0.0685 
     75 H75       -79.6201   29.0889  -73.7329 H         1 UNK         0.0685 
     76 H76       -78.9482   27.4551  -70.6425 H         1 UNK         0.1434 
     77 H77       -74.7049   27.7787  -70.9740 H         1 UNK         0.1329 
     78 H78       -77.2224   30.2809  -73.3752 H         1 UNK         0.1335 
     79 H79       -74.0842   29.0021  -73.4273 H         1 UNK         0.0680 
     80 H80       -74.8956   30.5426  -73.5469 H         1 UNK         0.0680 
     81 H81       -73.8088   32.4506  -72.9115 H         1 UNK         0.1032 
     82 H82       -72.8005   32.7532  -71.5420 H         1 UNK         0.1032 
     83 H83       -71.5868   33.0048  -73.6574 H         1 UNK         0.0461 
     84 H84       -68.7302   30.5801  -72.3307 H         1 UNK         0.3453 
     85 H85       -69.7905   30.1395  -73.6462 H         1 UNK         0.3453 
     86 H86       -72.4703   30.2839  -74.2557 H         1 UNK         0.2984 
     87 H87       -72.6177   30.3827  -77.0852 H         1 UNK         0.0554 
     88 H88       -70.8537   29.3738  -78.5498 H         1 UNK         0.0847 
     89 H89       -69.6034   29.9850  -77.4676 H         1 UNK         0.0847 
     90 H90       -70.6272   31.1034  -78.3564 H         1 UNK         0.0847 
     91 H91       -72.6235   28.3368  -76.2791 H         1 UNK         0.3141 
     92 H92       -70.2611   26.1149  -75.1183 H         1 UNK         0.0743 
     93 H93       -70.4581   27.0514  -72.8377 H         1 UNK         0.0784 
     94 H94       -72.1756   27.3420  -73.0582 H         1 UNK         0.0784 
     95 H95       -71.5568   25.6919  -73.0076 H         1 UNK         0.0784 
     96 H96       -73.1526   26.0947  -75.0010 H         1 UNK         0.3213 
     97 H97       -73.7310   25.7382  -78.4471 H         1 UNK         0.0855 
     98 H98       -73.7708   23.3217  -76.5549 H         1 UNK         0.0814 
     99 H99       -72.9394   23.3835  -78.1040 H         1 UNK         0.0814 
    100 H100      -74.6919   23.4808  -78.0491 H         1 UNK         0.0814 
    101 H101      -75.4795   25.1158  -76.3241 H         1 UNK         0.3105 
    102 H102      -75.9590   28.2351  -74.8361 H         1 UNK         0.0547 
    103 H103      -78.3215   28.0957  -75.5078 H         1 UNK         0.0837 
    104 H104      -77.3521   28.6033  -76.8795 H         1 UNK         0.0837 
    105 H105      -77.9177   26.9393  -76.7833 H         1 UNK         0.0837 
    106 H106      -77.4805   25.8588  -74.5837 H         1 UNK         0.3020 
    107 H107      -75.2185   23.6661  -73.4660 H         1 UNK         0.1245 
    108 H108      -74.9259   24.9048  -71.2350 H         1 UNK         0.0781 
    109 H109      -75.5432   23.2913  -71.2247 H         1 UNK         0.0781 
    110 H110      -75.6694   26.2339  -69.3815 H         1 UNK         0.0836 
    111 H111      -77.3106   26.5317  -68.8673 H         1 UNK         0.0836 
    112 H112      -77.9323   23.5649  -72.7601 H         1 UNK         0.3022 
    113 H113      -78.5674   21.5118  -75.2439 H         1 UNK         0.0747 
    114 H114      -80.6001   21.7753  -73.8195 H         1 UNK         0.0793 
    115 H115      -79.1398   21.8197  -72.8589 H         1 UNK         0.0793 
    116 H116      -79.9978   23.3183  -73.2202 H         1 UNK         0.0793 
    117 H117      -79.8150   24.1568  -75.8350 H         1 UNK         0.3047 
    118 H118      -80.6208   23.3473  -78.9396 H         1 UNK         0.0822 
    119 H119      -82.3678   21.6396  -78.5285 H         1 UNK         0.0807 
    120 H120      -83.1145   23.1969  -78.8352 H         1 UNK         0.0807 
    121 H121      -83.0162   22.5758  -77.1890 H         1 UNK         0.0807 
    122 H122      -82.0722   24.8466  -76.8221 H         1 UNK         0.2946 
    123 H123      -80.0827   27.7306  -77.2357 H         1 UNK         0.1144 
    124 H124      -81.6387   28.0070  -79.1671 H         1 UNK         0.0793 
    125 H125      -82.1995   28.8937  -77.7604 H         1 UNK         0.0793 
    126 H126      -82.9635   27.3663  -78.2047 H         1 UNK         0.0793 
    127 H127      -82.4605   27.3842  -75.7718 H         1 UNK         0.2896 
@<TRIPOS>BOND
     1    1    2 1    
     2    1   67 1    
     3    1   68 1    
     4    1   69 1    
     5    2    3 2    
     6    2    4 am   BACKBONE|DICT|INTERRES
     7    4    5 1    
     8    4   70 1    
     9    5    6 1    
    10    5   65 1    
    11    5   71 1    
    12    6    7 1    
    13    6   72 1    
    14    6   73 1    
    15    7    8 1    
    16    8    9 1    
    17    8   74 1    
    18    8   75 1    
    19    9   10 ar   
    20    9   14 ar   
    21   10   11 ar   
    22   10   76 1    
    23   11   12 ar   
    24   11   48 1    
    25   12   13 ar   
    26   12   77 1    
    27   13   14 ar   
    28   13   15 1    
    29   14   78 1    
    30   15   16 1    
    31   15   79 1    
    32   15   80 1    
    33   16   17 1    
    34   17   18 1    
    35   17   81 1    
    36   17   82 1    
    37   18   19 1    
    38   18   22 1    
    39   18   83 1    
    40   19   20 am   BACKBONE|DICT|INTERRES
    41   19   21 2    
    42   20   84 1    
    43   20   85 1    
    44   22   23 am   BACKBONE|DICT|INTERRES
    45   22   86 1    
    46   23   24 2    
    47   23   25 1    
    48   25   26 1    
    49   25   27 1    
    50   25   87 1    
    51   26   88 1    
    52   26   89 1    
    53   26   90 1    
    54   27   28 am   BACKBONE|DICT|INTERRES
    55   27   91 1    
    56   28   29 2    
    57   28   30 1    
    58   30   31 1    
    59   30   32 1    
    60   30   92 1    
    61   31   93 1    
    62   31   94 1    
    63   31   95 1    
    64   32   33 am   BACKBONE|DICT|INTERRES
    65   32   96 1    
    66   33   34 2    
    67   33   35 1    
    68   35   36 1    
    69   35   37 1    
    70   35   97 1    
    71   36   98 1    
    72   36   99 1    
    73   36  100 1    
    74   37   38 am   BACKBONE|DICT|INTERRES
    75   37  101 1    
    76   38   39 2    
    77   38   40 1    
    78   40   41 1    
    79   40   42 1    
    80   40  102 1    
    81   41  103 1    
    82   41  104 1    
    83   41  105 1    
    84   42   43 am   BACKBONE|DICT|INTERRES
    85   42  106 1    
    86   43   44 2    
    87   43   45 1    
    88   45   46 1    
    89   45   49 1    
    90   45  107 1    
    91   46   47 1    
    92   46  108 1    
    93   46  109 1    
    94   47   48 1    
    95   48  110 1    
    96   48  111 1    
    97   49   50 am   BACKBONE|DICT|INTERRES
    98   49  112 1    
    99   50   51 2    
   100   50   52 1    
   101   52   53 1    
   102   52   54 1    
   103   52  113 1    
   104   53  114 1    
   105   53  115 1    
   106   53  116 1    
   107   54   55 am   BACKBONE|DICT|INTERRES
   108   54  117 1    
   109   55   56 2    
   110   55   57 1    
   111   57   58 1    
   112   57   59 1    
   113   57  118 1    
   114   58  119 1    
   115   58  120 1    
   116   58  121 1    
   117   59   60 am   BACKBONE|DICT|INTERRES
   118   59  122 1    
   119   60   61 2    
   120   60   62 1    
   121   62   63 1    
   122   62   64 1    
   123   62  123 1    
   124   63  124 1    
   125   63  125 1    
   126   63  126 1    
   127   64   65 am   BACKBONE|DICT|INTERRES
   128   64  127 1    
   129   65   66 2    
@<TRIPOS>SUBSTRUCTURE
     1 UNK         1 GROUP             0       ****    0 ROOT    
