@<TRIPOS>MOLECULE
3R135
127   129    1
SMALL
USER_CHARGES


@<TRIPOS>ATOM
      1 CA        -81.0954   30.7659  -78.4964 C.3       0 UNK        -0.1998 
      2 C         -80.5520   29.4365  -77.9942 C.2       0 UNK         0.4909 
      3 O         -80.7015   28.4192  -78.6713 O.2       0 UNK        -0.5240 
      4 N         -79.9165   29.4409  -76.8166 N.am      1 UNK        -0.4739 
      5 CA        -79.3885   28.2516  -76.1421 C.3       1 UNK         0.0864 
      6 C6        -78.3625   28.6269  -75.0407 C.3       11 UNK        -0.0881 
      7 S7        -78.9629   29.8452  -73.8155 S.3       11 UNK        -0.2682 
      8 C8        -79.2147   28.8111  -72.3366 C.3       11 UNK         0.0289 
      9 C9        -77.8961   28.3502  -71.7314 C.ar      11 UNK        -0.0687 
     10 C10       -77.5078   27.0097  -71.8128 C.ar      11 UNK        -0.0823 
     11 C11       -76.2838   26.5902  -71.2798 C.ar      11 UNK        -0.0830 
     12 C12       -75.4535   27.5209  -70.6489 C.ar      11 UNK        -0.1021 
     13 C13       -75.8360   28.8621  -70.5531 C.ar      11 UNK        -0.0753 
     14 C14       -77.0613   29.2689  -71.0888 C.ar      11 UNK        -0.0933 
     15 C15       -74.9190   29.8770  -69.8913 C.3       11 UNK         0.0166 
     16 S16       -74.0955   30.8992  -71.1498 S.3       11 UNK        -0.2615 
     17 C17       -72.3713   30.9557  -70.5401 C.3       11 UNK        -0.0865 
     18 CA        -71.4324   29.9000  -71.1908 C.3       10 UNK         0.0862 
     19 C         -71.5275   28.5074  -70.5011 C.2       10 UNK         0.5551 
     20 N         -71.7925   27.4231  -71.2198 N.am      10 UNK        -0.7319 
     21 O         -71.3401   28.4082  -69.2911 O.2       10 UNK        -0.5018 
     22 N         -71.6086   29.8641  -72.6490 N.am      10 UNK        -0.4509 
     23 C         -70.6605   29.6492  -73.5660 C.2       10 UNK         0.4899 
     24 O         -69.4696   29.4977  -73.2921 O.2       10 UNK        -0.4839 
     25 CA        -71.1116   29.5741  -75.0401 C.3       9 UNK         0.0222 
     26 CB        -70.6859   28.2385  -75.6747 C.3       9 UNK        -0.1966 
     27 N         -72.5585   29.7320  -75.2233 N.am      9 UNK        -0.4218 
     28 C         -73.2438   30.8811  -75.2089 C.2       9 UNK         0.5020 
     29 O         -72.7189   31.9876  -75.0745 O.2       9 UNK        -0.5274 
     30 CA        -74.7732   30.7531  -75.3727 C.3       8 UNK         0.0270 
     31 CB        -75.5080   32.0935  -75.1889 C.3       8 UNK        -0.1976 
     32 N         -75.1528   30.1710  -76.6651 N.am      8 UNK        -0.4313 
     33 C         -75.0261   28.8797  -76.9927 C.2       8 UNK         0.5041 
     34 O         -74.5347   28.0301  -76.2422 O.2       8 UNK        -0.5577 
     35 CA        -75.5148   28.4638  -78.3832 C.3       7 UNK         0.0284 
     36 CB        -74.5002   28.8524  -79.4727 C.3       7 UNK        -0.1958 
     37 N         -75.6846   27.0173  -78.3604 N.am      7 UNK        -0.4454 
     38 C         -76.5717   26.3054  -79.0594 C.2       7 UNK         0.5089 
     39 O         -77.3157   26.7896  -79.9124 O.2       7 UNK        -0.5125 
     40 CA        -76.6444   24.7931  -78.7628 C.3       6 UNK         0.0408 
     41 CB        -75.9842   23.9941  -79.8983 C.3       6 UNK        -0.1791 
     42 N         -76.0425   24.3921  -77.4827 N.am      6 UNK        -0.4762 
     43 C         -76.5407   24.7097  -76.2797 C.2       6 UNK         0.5007 
     44 O         -77.5392   25.4127  -76.1178 O.2       6 UNK        -0.5032 
     45 CA        -75.8113   24.1725  -75.0420 C.3       5 UNK         0.0783 
     46 C46       -75.3364   25.3571  -74.1588 C.3       11 UNK        -0.0857 
     47 S47       -74.5230   24.8744  -72.5993 S.3       11 UNK        -0.2512 
     48 C48       -75.8586   25.1314  -71.3847 C.3       11 UNK         0.0225 
     49 N         -76.7456   23.2718  -74.3631 N.am      5 UNK        -0.4615 
     50 C         -76.4323   22.0546  -73.9008 C.2       4 UNK         0.5053 
     51 O         -75.3079   21.5594  -73.9838 O.2       4 UNK        -0.5105 
     52 CA        -77.5496   21.2420  -73.2235 C.3       4 UNK         0.0263 
     53 CB        -77.6128   21.5497  -71.7183 C.3       4 UNK        -0.1981 
     54 N         -78.8722   21.4540  -73.8147 N.am      4 UNK        -0.4224 
     55 C         -79.2971   20.8885  -74.9545 C.2       3 UNK         0.4895 
     56 O         -78.6096   20.1377  -75.6471 O.2       3 UNK        -0.5091 
     57 CA        -80.7413   21.2056  -75.3888 C.3       3 UNK         0.0250 
     58 CB        -81.7199   20.1765  -74.7997 C.3       3 UNK        -0.1996 
     59 N         -81.1638   22.5573  -75.0058 N.am      3 UNK        -0.4254 
     60 C         -80.6863   23.6705  -75.5776 C.2       2 UNK         0.5004 
     61 O         -79.9361   23.6527  -76.5554 O.2       2 UNK        -0.5226 
     62 CA        -81.0926   25.0122  -74.9456 C.3       2 UNK         0.0269 
     63 CB        -81.0283   24.9917  -73.4030 C.3       2 UNK        -0.1926 
     64 N         -80.2075   26.0579  -75.4513 N.am      2 UNK        -0.4687 
     65 C         -80.5151   27.3490  -75.5930 C.2       1 UNK         0.5165 
     66 O         -81.6099   27.8285  -75.2840 O.2       1 UNK        -0.5079 
     67 H67       -80.8806   31.5813  -77.8058 H         1 UNK         0.0900 
     68 H68       -80.6519   31.0126  -79.4607 H         1 UNK         0.0900 
     69 H69       -82.1760   30.7051  -78.6233 H         1 UNK         0.0900 
     70 H70       -79.8599   30.2941  -76.2785 H         1 UNK         0.2959 
     71 H71       -78.8569   27.6672  -76.8977 H         1 UNK         0.1079 
     72 H72       -77.4864   29.0674  -75.5125 H         1 UNK         0.0837 
     73 H73       -77.9904   27.7333  -74.5381 H         1 UNK         0.0837 
     74 H74       -79.8485   27.9612  -72.5927 H         1 UNK         0.0685 
     75 H75       -79.7651   29.3896  -71.5935 H         1 UNK         0.0685 
     76 H76       -78.1518   26.2954  -72.3066 H         1 UNK         0.1434 
     77 H77       -74.5031   27.2006  -70.2444 H         1 UNK         0.1329 
     78 H78       -77.3546   30.3082  -71.0281 H         1 UNK         0.1335 
     79 H79       -75.4941   30.5210  -69.2244 H         1 UNK         0.0680 
     80 H80       -74.1826   29.3681  -69.2679 H         1 UNK         0.0680 
     81 H81       -71.9891   31.9499  -70.7762 H         1 UNK         0.1032 
     82 H82       -72.3504   30.8999  -69.4500 H         1 UNK         0.1032 
     83 H83       -70.4121   30.2332  -70.9919 H         1 UNK         0.0461 
     84 H84       -71.8402   26.5260  -70.7644 H         1 UNK         0.3453 
     85 H85       -71.9482   27.4947  -72.2115 H         1 UNK         0.3453 
     86 H86       -72.5610   29.9796  -72.9622 H         1 UNK         0.2984 
     87 H87       -70.6058   30.3816  -75.5732 H         1 UNK         0.0554 
     88 H88       -69.6057   28.0991  -75.6139 H         1 UNK         0.0847 
     89 H89       -70.9555   28.1971  -76.7303 H         1 UNK         0.0847 
     90 H90       -71.1534   27.3881  -75.1765 H         1 UNK         0.0847 
     91 H91       -73.0985   28.8870  -75.4054 H         1 UNK         0.3141 
     92 H92       -75.1212   30.0848  -74.5809 H         1 UNK         0.0743 
     93 H93       -75.2287   32.8184  -75.9544 H         1 UNK         0.0784 
     94 H94       -76.5896   31.9602  -75.2269 H         1 UNK         0.0784 
     95 H95       -75.2742   32.5347  -74.2187 H         1 UNK         0.0784 
     96 H96       -75.5214   30.8132  -77.3523 H         1 UNK         0.3213 
     97 H97       -76.4772   28.9441  -78.5745 H         1 UNK         0.0855 
     98 H98       -73.5238   28.4006  -79.2923 H         1 UNK         0.0814 
     99 H99       -74.3585   29.9330  -79.5134 H         1 UNK         0.0814 
    100 H100      -74.8379   28.5342  -80.4593 H         1 UNK         0.0814 
    101 H101      -75.1557   26.5622  -77.6260 H         1 UNK         0.3105 
    102 H102      -77.7027   24.5241  -78.7299 H         1 UNK         0.0547 
    103 H103      -76.1069   22.9207  -79.7537 H         1 UNK         0.0837 
    104 H104      -74.9169   24.2056  -79.9738 H         1 UNK         0.0837 
    105 H105      -76.4330   24.2410  -80.8616 H         1 UNK         0.0837 
    106 H106      -75.2165   23.8126  -77.5380 H         1 UNK         0.3020 
    107 H107      -74.9295   23.6181  -75.3708 H         1 UNK         0.1245 
    108 H108      -76.1589   26.0385  -73.9453 H         1 UNK         0.0781 
    109 H109      -74.6082   25.9511  -74.7119 H         1 UNK         0.0781 
    110 H110      -75.5193   24.7833  -70.4081 H         1 UNK         0.0836 
    111 H111      -76.7076   24.5039  -71.6532 H         1 UNK         0.0836 
    112 H112      -77.7035   23.5873  -74.3298 H         1 UNK         0.3022 
    113 H113      -77.2897   20.1866  -73.3338 H         1 UNK         0.0747 
    114 H114      -78.2683   20.8485  -71.2015 H         1 UNK         0.0793 
    115 H115      -76.6269   21.4672  -71.2578 H         1 UNK         0.0793 
    116 H116      -77.9838   22.5555  -71.5229 H         1 UNK         0.0793 
    117 H117      -79.5146   22.0388  -73.3019 H         1 UNK         0.3047 
    118 H118      -80.7822   21.1277  -76.4778 H         1 UNK         0.0822 
    119 H119      -82.7357   20.3444  -75.1581 H         1 UNK         0.0807 
    120 H120      -81.7378   20.2097  -73.7095 H         1 UNK         0.0807 
    121 H121      -81.4399   19.1627  -75.0898 H         1 UNK         0.0807 
    122 H122      -81.8047   22.6360  -74.2292 H         1 UNK         0.2946 
    123 H123      -82.1162   25.2214  -75.2646 H         1 UNK         0.1144 
    124 H124      -81.2792   25.9667  -72.9852 H         1 UNK         0.0793 
    125 H125      -80.0342   24.7234  -73.0441 H         1 UNK         0.0793 
    126 H126      -81.7385   24.2821  -72.9780 H         1 UNK         0.0793 
    127 H127      -79.2995   25.7254  -75.7804 H         1 UNK         0.2896 
@<TRIPOS>BOND
     1    1    2 1    
     2    1   67 1    
     3    1   68 1    
     4    1   69 1    
     5    2    3 2    
     6    2    4 am   BACKBONE|DICT|INTERRES
     7    4    5 1    
     8    4   70 1    
     9    5    6 1    
    10    5   65 1    
    11    5   71 1    
    12    6    7 1    
    13    6   72 1    
    14    6   73 1    
    15    7    8 1    
    16    8    9 1    
    17    8   74 1    
    18    8   75 1    
    19    9   10 ar   
    20    9   14 ar   
    21   10   11 ar   
    22   10   76 1    
    23   11   12 ar   
    24   11   48 1    
    25   12   13 ar   
    26   12   77 1    
    27   13   14 ar   
    28   13   15 1    
    29   14   78 1    
    30   15   16 1    
    31   15   79 1    
    32   15   80 1    
    33   16   17 1    
    34   17   18 1    
    35   17   81 1    
    36   17   82 1    
    37   18   19 1    
    38   18   22 1    
    39   18   83 1    
    40   19   20 am   BACKBONE|DICT|INTERRES
    41   19   21 2    
    42   20   84 1    
    43   20   85 1    
    44   22   23 am   BACKBONE|DICT|INTERRES
    45   22   86 1    
    46   23   24 2    
    47   23   25 1    
    48   25   26 1    
    49   25   27 1    
    50   25   87 1    
    51   26   88 1    
    52   26   89 1    
    53   26   90 1    
    54   27   28 am   BACKBONE|DICT|INTERRES
    55   27   91 1    
    56   28   29 2    
    57   28   30 1    
    58   30   31 1    
    59   30   32 1    
    60   30   92 1    
    61   31   93 1    
    62   31   94 1    
    63   31   95 1    
    64   32   33 am   BACKBONE|DICT|INTERRES
    65   32   96 1    
    66   33   34 2    
    67   33   35 1    
    68   35   36 1    
    69   35   37 1    
    70   35   97 1    
    71   36   98 1    
    72   36   99 1    
    73   36  100 1    
    74   37   38 am   BACKBONE|DICT|INTERRES
    75   37  101 1    
    76   38   39 2    
    77   38   40 1    
    78   40   41 1    
    79   40   42 1    
    80   40  102 1    
    81   41  103 1    
    82   41  104 1    
    83   41  105 1    
    84   42   43 am   BACKBONE|DICT|INTERRES
    85   42  106 1    
    86   43   44 2    
    87   43   45 1    
    88   45   46 1    
    89   45   49 1    
    90   45  107 1    
    91   46   47 1    
    92   46  108 1    
    93   46  109 1    
    94   47   48 1    
    95   48  110 1    
    96   48  111 1    
    97   49   50 am   BACKBONE|DICT|INTERRES
    98   49  112 1    
    99   50   51 2    
   100   50   52 1    
   101   52   53 1    
   102   52   54 1    
   103   52  113 1    
   104   53  114 1    
   105   53  115 1    
   106   53  116 1    
   107   54   55 am   BACKBONE|DICT|INTERRES
   108   54  117 1    
   109   55   56 2    
   110   55   57 1    
   111   57   58 1    
   112   57   59 1    
   113   57  118 1    
   114   58  119 1    
   115   58  120 1    
   116   58  121 1    
   117   59   60 am   BACKBONE|DICT|INTERRES
   118   59  122 1    
   119   60   61 2    
   120   60   62 1    
   121   62   63 1    
   122   62   64 1    
   123   62  123 1    
   124   63  124 1    
   125   63  125 1    
   126   63  126 1    
   127   64   65 am   BACKBONE|DICT|INTERRES
   128   64  127 1    
   129   65   66 2    
@<TRIPOS>SUBSTRUCTURE
     1 UNK         1 GROUP             0       ****    0 ROOT    
