@<TRIPOS>MOLECULE
3R135
127   129    1
SMALL
USER_CHARGES


@<TRIPOS>ATOM
      1 CA        -85.1367   24.7981  -69.5362 C.3       0 UNK        -0.1998 
      2 C         -84.0260   25.6699  -70.1032 C.2       0 UNK         0.4909 
      3 O         -83.7867   26.7662  -69.5955 O.2       0 UNK        -0.5240 
      4 N         -83.3471   25.1944  -71.1512 N.am      1 UNK        -0.4739 
      5 CA        -82.2682   25.8924  -71.8443 C.3       1 UNK         0.0864 
      6 C6        -80.9120   25.7203  -71.1062 C.3       11 UNK        -0.0881 
      7 S7        -79.5079   26.5354  -71.9396 S.3       11 UNK        -0.2682 
      8 C8        -79.4283   28.1253  -71.0627 C.3       11 UNK         0.0289 
      9 C9        -78.7033   29.1634  -71.9052 C.ar      11 UNK        -0.0687 
     10 C10       -79.3539   29.7301  -73.0038 C.ar      11 UNK        -0.0823 
     11 C11       -78.7078   30.6722  -73.8077 C.ar      11 UNK        -0.0830 
     12 C12       -77.4073   31.0703  -73.4874 C.ar      11 UNK        -0.1021 
     13 C13       -76.7468   30.5199  -72.3841 C.ar      11 UNK        -0.0753 
     14 C14       -77.3977   29.5614  -71.5978 C.ar      11 UNK        -0.0933 
     15 C15       -75.3394   30.9871  -72.0393 C.3       11 UNK         0.0166 
     16 S16       -74.0840   30.1930  -73.0911 S.3       11 UNK        -0.2615 
     17 C17       -73.8584   28.5886  -72.2500 C.3       11 UNK        -0.0865 
     18 CA        -72.4601   28.4582  -71.5810 C.3       10 UNK         0.0862 
     19 C         -72.3679   27.2419  -70.6073 C.2       10 UNK         0.5551 
     20 N         -71.2148   26.6014  -70.4591 N.am      10 UNK        -0.7319 
     21 O         -73.3430   26.8949  -69.9458 O.2       10 UNK        -0.5018 
     22 N         -71.3568   28.5667  -72.5564 N.am      10 UNK        -0.4509 
     23 C         -71.0836   27.6988  -73.5396 C.2       10 UNK         0.4899 
     24 O         -71.6876   26.6400  -73.7271 O.2       10 UNK        -0.4839 
     25 CA        -69.9105   28.0683  -74.4531 C.3       9 UNK         0.0222 
     26 CB        -68.5605   27.7693  -73.7744 C.3       9 UNK        -0.1966 
     27 N         -70.0252   27.3055  -75.6925 N.am      9 UNK        -0.4218 
     28 C         -69.5192   27.6571  -76.8796 C.2       9 UNK         0.5020 
     29 O         -68.8531   28.6778  -77.0599 O.2       9 UNK        -0.5274 
     30 CA        -69.7742   26.7156  -78.0739 C.3       8 UNK         0.0270 
     31 CB        -68.5029   25.9147  -78.4030 C.3       8 UNK        -0.1976 
     32 N         -70.8896   25.7809  -77.8853 N.am      8 UNK        -0.4313 
     33 C         -72.1837   26.1255  -77.8775 C.2       8 UNK         0.5041 
     34 O         -72.5796   27.2858  -78.0095 O.2       8 UNK        -0.5577 
     35 CA        -73.1823   24.9711  -77.6781 C.3       7 UNK         0.0284 
     36 CB        -73.0944   24.4010  -76.2511 C.3       7 UNK        -0.1958 
     37 N         -74.5593   25.3951  -77.9396 N.am      7 UNK        -0.4454 
     38 C         -75.1164   25.4651  -79.1563 C.2       7 UNK         0.5089 
     39 O         -74.5288   25.1418  -80.1903 O.2       7 UNK        -0.5125 
     40 CA        -76.5796   25.9431  -79.2569 C.3       6 UNK         0.0408 
     41 CB        -77.5034   24.7643  -79.6041 C.3       6 UNK        -0.1791 
     42 N         -77.0817   26.5796  -78.0389 N.am      6 UNK        -0.4762 
     43 C         -76.7927   27.8253  -77.6367 C.2       6 UNK         0.5007 
     44 O         -76.1054   28.6136  -78.2863 O.2       6 UNK        -0.5032 
     45 CA        -77.3543   28.2405  -76.2590 C.3       5 UNK         0.0783 
     46 C46       -78.7835   28.8340  -76.3904 C.3       11 UNK        -0.0857 
     47 S47       -78.7325   30.6470  -76.5981 S.3       11 UNK        -0.2512 
     48 C48       -79.4206   31.2539  -75.0215 C.3       11 UNK         0.0225 
     49 N         -77.2973   27.1340  -75.2947 N.am      5 UNK        -0.4615 
     50 C         -76.1591   26.5769  -74.8549 C.2       4 UNK         0.5053 
     51 O         -75.0451   26.9781  -75.1793 O.2       4 UNK        -0.5105 
     52 CA        -76.2682   25.3350  -73.9541 C.3       4 UNK         0.0263 
     53 CB        -76.1344   25.7068  -72.4683 C.3       4 UNK        -0.1981 
     54 N         -77.5128   24.5954  -74.1871 N.am      4 UNK        -0.4224 
     55 C         -77.6916   23.7756  -75.2340 C.2       3 UNK         0.4895 
     56 O         -76.8234   23.5377  -76.0736 O.2       3 UNK        -0.5091 
     57 CA        -79.0799   23.1358  -75.3926 C.3       3 UNK         0.0250 
     58 CB        -79.2599   21.9711  -74.4053 C.3       3 UNK        -0.1996 
     59 N         -80.1889   24.0805  -75.2408 N.am      3 UNK        -0.4254 
     60 C         -80.3915   25.1815  -75.9761 C.2       2 UNK         0.5004 
     61 O         -79.6168   25.5704  -76.8498 O.2       2 UNK        -0.5226 
     62 CA        -81.6522   26.0121  -75.6734 C.3       2 UNK         0.0269 
     63 CB        -82.8894   25.4266  -76.3813 C.3       2 UNK        -0.1926 
     64 N         -81.8947   26.2407  -74.2399 N.am      2 UNK        -0.4687 
     65 C         -82.2339   25.3590  -73.2869 C.2       1 UNK         0.5165 
     66 O         -82.4604   24.1639  -73.4968 O.2       1 UNK        -0.5079 
     67 H67       -85.2123   23.8436  -70.0581 H         1 UNK         0.0900 
     68 H68       -84.9518   24.5937  -68.4815 H         1 UNK         0.0900 
     69 H69       -86.0958   25.3095  -69.6223 H         1 UNK         0.0900 
     70 H70       -83.5908   24.3031  -71.5676 H         1 UNK         0.2959 
     71 H71       -82.5163   26.9557  -71.8858 H         1 UNK         0.1079 
     72 H72       -80.9879   26.1022  -70.0869 H         1 UNK         0.0837 
     73 H73       -80.6717   24.6601  -71.0063 H         1 UNK         0.0837 
     74 H74       -80.4374   28.4795  -70.8461 H         1 UNK         0.0685 
     75 H75       -78.9331   27.9840  -70.1010 H         1 UNK         0.0685 
     76 H76       -80.3626   29.4215  -73.2406 H         1 UNK         0.1434 
     77 H77       -76.9047   31.8036  -74.1037 H         1 UNK         0.1329 
     78 H78       -76.8928   29.1307  -70.7443 H         1 UNK         0.1335 
     79 H79       -75.1131   30.8064  -70.9873 H         1 UNK         0.0680 
     80 H80       -75.2760   32.0673  -72.1790 H         1 UNK         0.0680 
     81 H81       -73.9945   27.7975  -72.9850 H         1 UNK         0.1032 
     82 H82       -74.6572   28.4558  -71.5200 H         1 UNK         0.1032 
     83 H83       -72.3435   29.3221  -70.9257 H         1 UNK         0.0461 
     84 H84       -70.4068   26.8782  -70.9922 H         1 UNK         0.3453 
     85 H85       -71.1595   25.8249  -69.8194 H         1 UNK         0.3453 
     86 H86       -70.7878   29.3966  -72.4722 H         1 UNK         0.2984 
     87 H87       -69.9798   29.1340  -74.6808 H         1 UNK         0.0554 
     88 H88       -68.4583   26.7108  -73.5326 H         1 UNK         0.0847 
     89 H89       -68.4516   28.3297  -72.8452 H         1 UNK         0.0847 
     90 H90       -67.7236   28.0470  -74.4152 H         1 UNK         0.0847 
     91 H91       -70.6179   26.4878  -75.6238 H         1 UNK         0.3141 
     92 H92       -70.0083   27.3470  -78.9338 H         1 UNK         0.0743 
     93 H93       -68.2201   25.2514  -77.5847 H         1 UNK         0.0784 
     94 H94       -68.6348   25.3082  -79.2993 H         1 UNK         0.0784 
     95 H95       -67.6586   26.5805  -78.5878 H         1 UNK         0.0784 
     96 H96       -70.6453   24.8073  -77.7700 H         1 UNK         0.3213 
     97 H97       -72.9248   24.1744  -78.3797 H         1 UNK         0.0855 
     98 H98       -73.2176   25.1767  -75.4957 H         1 UNK         0.0814 
     99 H99       -72.1275   23.9305  -76.0714 H         1 UNK         0.0814 
    100 H100      -73.8571   23.6410  -76.0787 H         1 UNK         0.0814 
    101 H101      -75.0761   25.7611  -77.1511 H         1 UNK         0.3105 
    102 H102      -76.6318   26.6680  -80.0719 H         1 UNK         0.0547 
    103 H103      -77.1937   24.2824  -80.5324 H         1 UNK         0.0837 
    104 H104      -77.4945   24.0040  -78.8218 H         1 UNK         0.0837 
    105 H105      -78.5342   25.0932  -79.7378 H         1 UNK         0.0837 
    106 H106      -77.7186   26.0295  -77.4694 H         1 UNK         0.3020 
    107 H107      -76.6858   29.0100  -75.8634 H         1 UNK         0.1245 
    108 H108      -79.3848   28.5952  -75.5139 H         1 UNK         0.0781 
    109 H109      -79.3325   28.3989  -77.2283 H         1 UNK         0.0781 
    110 H110      -80.4871   31.0251  -74.9909 H         1 UNK         0.0836 
    111 H111      -79.3439   32.3417  -74.9979 H         1 UNK         0.0836 
    112 H112      -78.1766   26.7312  -75.0100 H         1 UNK         0.3022 
    113 H113      -75.4337   24.6737  -74.1974 H         1 UNK         0.0747 
    114 H114      -76.4912   24.9105  -71.8148 H         1 UNK         0.0793 
    115 H115      -75.0894   25.8803  -72.2125 H         1 UNK         0.0793 
    116 H116      -76.6784   26.6182  -72.2217 H         1 UNK         0.0793 
    117 H117      -78.2742   24.7514  -73.5408 H         1 UNK         0.3047 
    118 H118      -79.1366   22.7335  -76.4065 H         1 UNK         0.0822 
    119 H119      -80.1954   21.4408  -74.5850 H         1 UNK         0.0807 
    120 H120      -79.2640   22.3137  -73.3697 H         1 UNK         0.0807 
    121 H121      -78.4526   21.2444  -74.5069 H         1 UNK         0.0807 
    122 H122      -80.9017   23.8529  -74.5528 H         1 UNK         0.2946 
    123 H123      -81.4754   26.9996  -76.1038 H         1 UNK         0.1144 
    124 H124      -82.7271   25.3693  -77.4583 H         1 UNK         0.0793 
    125 H125      -83.7693   26.0491  -76.2197 H         1 UNK         0.0793 
    126 H126      -83.1239   24.4186  -76.0379 H         1 UNK         0.0793 
    127 H127      -81.7010   27.1843  -73.9349 H         1 UNK         0.2896 
@<TRIPOS>BOND
     1    1    2 1    
     2    1   67 1    
     3    1   68 1    
     4    1   69 1    
     5    2    3 2    
     6    2    4 am   BACKBONE|DICT|INTERRES
     7    4    5 1    
     8    4   70 1    
     9    5    6 1    
    10    5   65 1    
    11    5   71 1    
    12    6    7 1    
    13    6   72 1    
    14    6   73 1    
    15    7    8 1    
    16    8    9 1    
    17    8   74 1    
    18    8   75 1    
    19    9   10 ar   
    20    9   14 ar   
    21   10   11 ar   
    22   10   76 1    
    23   11   12 ar   
    24   11   48 1    
    25   12   13 ar   
    26   12   77 1    
    27   13   14 ar   
    28   13   15 1    
    29   14   78 1    
    30   15   16 1    
    31   15   79 1    
    32   15   80 1    
    33   16   17 1    
    34   17   18 1    
    35   17   81 1    
    36   17   82 1    
    37   18   19 1    
    38   18   22 1    
    39   18   83 1    
    40   19   20 am   BACKBONE|DICT|INTERRES
    41   19   21 2    
    42   20   84 1    
    43   20   85 1    
    44   22   23 am   BACKBONE|DICT|INTERRES
    45   22   86 1    
    46   23   24 2    
    47   23   25 1    
    48   25   26 1    
    49   25   27 1    
    50   25   87 1    
    51   26   88 1    
    52   26   89 1    
    53   26   90 1    
    54   27   28 am   BACKBONE|DICT|INTERRES
    55   27   91 1    
    56   28   29 2    
    57   28   30 1    
    58   30   31 1    
    59   30   32 1    
    60   30   92 1    
    61   31   93 1    
    62   31   94 1    
    63   31   95 1    
    64   32   33 am   BACKBONE|DICT|INTERRES
    65   32   96 1    
    66   33   34 2    
    67   33   35 1    
    68   35   36 1    
    69   35   37 1    
    70   35   97 1    
    71   36   98 1    
    72   36   99 1    
    73   36  100 1    
    74   37   38 am   BACKBONE|DICT|INTERRES
    75   37  101 1    
    76   38   39 2    
    77   38   40 1    
    78   40   41 1    
    79   40   42 1    
    80   40  102 1    
    81   41  103 1    
    82   41  104 1    
    83   41  105 1    
    84   42   43 am   BACKBONE|DICT|INTERRES
    85   42  106 1    
    86   43   44 2    
    87   43   45 1    
    88   45   46 1    
    89   45   49 1    
    90   45  107 1    
    91   46   47 1    
    92   46  108 1    
    93   46  109 1    
    94   47   48 1    
    95   48  110 1    
    96   48  111 1    
    97   49   50 am   BACKBONE|DICT|INTERRES
    98   49  112 1    
    99   50   51 2    
   100   50   52 1    
   101   52   53 1    
   102   52   54 1    
   103   52  113 1    
   104   53  114 1    
   105   53  115 1    
   106   53  116 1    
   107   54   55 am   BACKBONE|DICT|INTERRES
   108   54  117 1    
   109   55   56 2    
   110   55   57 1    
   111   57   58 1    
   112   57   59 1    
   113   57  118 1    
   114   58  119 1    
   115   58  120 1    
   116   58  121 1    
   117   59   60 am   BACKBONE|DICT|INTERRES
   118   59  122 1    
   119   60   61 2    
   120   60   62 1    
   121   62   63 1    
   122   62   64 1    
   123   62  123 1    
   124   63  124 1    
   125   63  125 1    
   126   63  126 1    
   127   64   65 am   BACKBONE|DICT|INTERRES
   128   64  127 1    
   129   65   66 2    
@<TRIPOS>SUBSTRUCTURE
     1 UNK         1 GROUP             0       ****    0 ROOT    
