@<TRIPOS>MOLECULE
3R135
127   129    1
SMALL
USER_CHARGES


@<TRIPOS>ATOM
      1 CA        -79.3382   19.8503  -71.8577 C.3       0 UNK        -0.1998 
      2 C         -80.1055   21.1609  -71.7667 C.2       0 UNK         0.4909 
      3 O         -81.2174   21.1843  -71.2372 O.2       0 UNK        -0.5240 
      4 N         -79.5162   22.2523  -72.2699 N.am      1 UNK        -0.4739 
      5 CA        -80.1247   23.5849  -72.3249 C.3       1 UNK         0.0864 
      6 C6        -79.0880   24.6668  -72.7073 C.3       11 UNK        -0.0881 
      7 S7        -77.8375   24.9303  -71.4087 S.3       11 UNK        -0.2682 
      8 C8        -78.4347   26.4663  -70.6337 C.3       11 UNK         0.0289 
      9 C9        -78.1728   27.6930  -71.4983 C.ar      11 UNK        -0.0687 
     10 C10       -79.2076   28.2779  -72.2361 C.ar      11 UNK        -0.0823 
     11 C11       -78.9737   29.4233  -73.0031 C.ar      11 UNK        -0.0830 
     12 C12       -77.6964   29.9926  -73.0176 C.ar      11 UNK        -0.1021 
     13 C13       -76.6547   29.4185  -72.2839 C.ar      11 UNK        -0.0753 
     14 C14       -76.8978   28.2663  -71.5300 C.ar      11 UNK        -0.0933 
     15 C15       -75.2822   30.0733  -72.2693 C.3       11 UNK         0.0166 
     16 S16       -74.3446   29.7377  -73.7908 S.3       11 UNK        -0.2615 
     17 C17       -72.8073   30.6367  -73.3931 C.3       11 UNK        -0.0865 
     18 CA        -71.9328   30.9436  -74.6353 C.3       10 UNK         0.0862 
     19 C         -70.8001   31.9387  -74.2584 C.2       10 UNK         0.5551 
     20 N         -71.0131   33.2301  -74.4718 N.am      10 UNK        -0.7319 
     21 O         -69.7571   31.5571  -73.7315 O.2       10 UNK        -0.5018 
     22 N         -71.4116   29.7200  -75.2689 N.am      10 UNK        -0.4509 
     23 C         -70.8142   29.7012  -76.4716 C.2       10 UNK         0.4899 
     24 O         -70.7137   30.7001  -77.1860 O.2       10 UNK        -0.4839 
     25 CA        -70.2781   28.3567  -77.0089 C.3       9 UNK         0.0222 
     26 CB        -69.0263   28.5253  -77.8973 C.3       9 UNK        -0.1966 
     27 N         -70.0725   27.3282  -75.9845 N.am      9 UNK        -0.4218 
     28 C         -69.1687   27.3120  -74.9912 C.2       9 UNK         0.5020 
     29 O         -68.2956   28.1675  -74.8392 O.2       9 UNK        -0.5274 
     30 CA        -69.2773   26.1347  -73.9932 C.3       8 UNK         0.0270 
     31 CB        -68.6021   26.4338  -72.6371 C.3       8 UNK        -0.1976 
     32 N         -70.6623   25.6756  -73.7992 N.am      8 UNK        -0.4313 
     33 C         -71.6925   26.4272  -73.3849 C.2       8 UNK         0.5041 
     34 O         -71.5850   27.5945  -73.0090 O.2       8 UNK        -0.5577 
     35 CA        -73.0940   25.8135  -73.5271 C.3       7 UNK         0.0284 
     36 CB        -73.9063   25.9686  -72.2308 C.3       7 UNK        -0.1958 
     37 N         -73.8120   26.4676  -74.6234 N.am      7 UNK        -0.4454 
     38 C         -73.4537   26.4353  -75.9150 C.2       7 UNK         0.5089 
     39 O         -72.5076   25.7685  -76.3394 O.2       7 UNK        -0.5125 
     40 CA        -74.2766   27.2993  -76.8837 C.3       6 UNK         0.0408 
     41 CB        -74.1527   26.8447  -78.3509 C.3       6 UNK        -0.1791 
     42 N         -75.6786   27.3094  -76.4780 N.am      6 UNK        -0.4762 
     43 C         -76.5571   28.2952  -76.6816 C.2       6 UNK         0.5007 
     44 O         -76.2878   29.3304  -77.2936 O.2       6 UNK        -0.5032 
     45 CA        -77.9782   28.0628  -76.1206 C.3       5 UNK         0.0783 
     46 C46       -78.8773   29.3191  -76.2495 C.3       11 UNK        -0.0857 
     47 S47       -80.4468   29.1270  -75.3411 S.3       11 UNK        -0.2512 
     48 C48       -80.1039   30.0504  -73.8082 C.3       11 UNK         0.0225 
     49 N         -78.6147   26.8828  -76.7196 N.am      5 UNK        -0.4615 
     50 C         -78.3201   25.6048  -76.4589 C.2       4 UNK         0.5053 
     51 O         -77.4259   25.2659  -75.6819 O.2       4 UNK        -0.5105 
     52 CA        -79.1532   24.5369  -77.1932 C.3       4 UNK         0.0263 
     53 CB        -78.7433   23.1022  -76.8098 C.3       4 UNK        -0.1981 
     54 N         -80.5957   24.7024  -76.9775 N.am      4 UNK        -0.4224 
     55 C         -81.3719   25.5726  -77.6430 C.2       3 UNK         0.4895 
     56 O         -80.9253   26.3798  -78.4600 O.2       3 UNK        -0.5091 
     57 CA        -82.8916   25.5444  -77.3926 C.3       3 UNK         0.0250 
     58 CB        -83.6129   24.8774  -78.5757 C.3       3 UNK        -0.1996 
     59 N         -83.2742   24.8570  -76.1584 N.am      3 UNK        -0.4254 
     60 C         -83.2242   25.4064  -74.9387 C.2       2 UNK         0.5004 
     61 O         -82.8776   26.5676  -74.7239 O.2       2 UNK        -0.5226 
     62 CA        -83.5983   24.5142  -73.7403 C.3       2 UNK         0.0269 
     63 CB        -84.3387   23.2086  -74.1161 C.3       2 UNK        -0.1926 
     64 N         -82.4136   24.2331  -72.9214 N.am      2 UNK        -0.4687 
     65 C         -81.2953   23.6127  -73.3263 C.2       1 UNK         0.5165 
     66 O         -81.1468   23.1245  -74.4501 O.2       1 UNK        -0.5079 
     67 H67       -79.1719   19.4427  -70.8609 H         1 UNK         0.0900 
     68 H68       -78.3683   19.9782  -72.3379 H         1 UNK         0.0900 
     69 H69       -79.9081   19.1217  -72.4337 H         1 UNK         0.0900 
     70 H70       -78.6044   22.1744  -72.6964 H         1 UNK         0.2959 
     71 H71       -80.5172   23.8135  -71.3314 H         1 UNK         0.1079 
     72 H72       -78.5658   24.3717  -73.6165 H         1 UNK         0.0837 
     73 H73       -79.5727   25.6155  -72.9407 H         1 UNK         0.0837 
     74 H74       -79.4977   26.3706  -70.4067 H         1 UNK         0.0685 
     75 H75       -77.9312   26.5901  -69.6738 H         1 UNK         0.0685 
     76 H76       -80.1986   27.8450  -72.2161 H         1 UNK         0.1434 
     77 H77       -77.5085   30.8855  -73.5984 H         1 UNK         0.1329 
     78 H78       -76.1003   27.8221  -70.9507 H         1 UNK         0.1335 
     79 H79       -75.3994   31.1512  -72.1464 H         1 UNK         0.0680 
     80 H80       -74.7042   29.7261  -71.4113 H         1 UNK         0.0680 
     81 H81       -72.2418   30.0686  -72.6526 H         1 UNK         0.1032 
     82 H82       -73.0890   31.5697  -72.9005 H         1 UNK         0.1032 
     83 H83       -72.5735   31.4335  -75.3719 H         1 UNK         0.0461 
     84 H84       -70.2979   33.8937  -74.2181 H         1 UNK         0.3453 
     85 H85       -71.8686   33.5542  -74.8959 H         1 UNK         0.3453 
     86 H86       -71.4239   28.8862  -74.6920 H         1 UNK         0.2984 
     87 H87       -71.0702   27.9672  -77.6490 H         1 UNK         0.0554 
     88 H88       -68.6718   27.5652  -78.2722 H         1 UNK         0.0847 
     89 H89       -68.2062   28.9997  -77.3577 H         1 UNK         0.0847 
     90 H90       -69.2429   29.1485  -78.7657 H         1 UNK         0.0847 
     91 H91       -70.7593   26.5781  -76.0051 H         1 UNK         0.3141 
     92 H92       -68.7403   25.3030  -74.4517 H         1 UNK         0.0743 
     93 H93       -69.0435   27.3033  -72.1486 H         1 UNK         0.0784 
     94 H94       -68.6867   25.5872  -71.9560 H         1 UNK         0.0784 
     95 H95       -67.5388   26.6395  -72.7660 H         1 UNK         0.0784 
     96 H96       -70.8608   24.7408  -74.1312 H         1 UNK         0.3213 
     97 H97       -73.0075   24.7494  -73.7565 H         1 UNK         0.0855 
     98 H98       -74.0239   27.0169  -71.9533 H         1 UNK         0.0814 
     99 H99       -73.4125   25.4653  -71.3990 H         1 UNK         0.0814 
    100 H100      -74.9013   25.5344  -72.3301 H         1 UNK         0.0814 
    101 H101      -74.5480   27.1066  -74.3563 H         1 UNK         0.3105 
    102 H102      -73.8777   28.3125  -76.8005 H         1 UNK         0.0547 
    103 H103      -73.1145   26.8625  -78.6843 H         1 UNK         0.0837 
    104 H104      -74.5227   25.8279  -78.4863 H         1 UNK         0.0837 
    105 H105      -74.7143   27.4977  -79.0188 H         1 UNK         0.0837 
    106 H106      -76.0223   26.4662  -76.0196 H         1 UNK         0.3020 
    107 H107      -77.8459   27.8600  -75.0553 H         1 UNK         0.1245 
    108 H108      -79.1081   29.5175  -77.2978 H         1 UNK         0.0781 
    109 H109      -78.3647   30.2096  -75.8817 H         1 UNK         0.0781 
    110 H110      -81.0108   30.0750  -73.2024 H         1 UNK         0.0836 
    111 H111      -79.8761   31.0890  -74.0537 H         1 UNK         0.0836 
    112 H112      -79.3677   27.0624  -77.3755 H         1 UNK         0.3022 
    113 H113      -78.9458   24.6551  -78.2590 H         1 UNK         0.0747 
    114 H114      -79.3332   22.3615  -77.3497 H         1 UNK         0.0793 
    115 H115      -77.6954   22.9191  -77.0510 H         1 UNK         0.0793 
    116 H116      -78.8661   22.9157  -75.7428 H         1 UNK         0.0793 
    117 H117      -81.0113   24.1133  -76.2628 H         1 UNK         0.3047 
    118 H118      -83.2272   26.5824  -77.3337 H         1 UNK         0.0822 
    119 H119      -84.6955   24.9127  -78.4517 H         1 UNK         0.0807 
    120 H120      -83.3208   23.8328  -78.6910 H         1 UNK         0.0807 
    121 H121      -83.3801   25.3859  -79.5125 H         1 UNK         0.0807 
    122 H122      -83.5465   23.8877  -76.2385 H         1 UNK         0.2946 
    123 H123      -84.2754   25.1083  -73.1238 H         1 UNK         0.1144 
    124 H124      -85.2432   23.4208  -74.6880 H         1 UNK         0.0793 
    125 H125      -84.6493   22.6692  -73.2212 H         1 UNK         0.0793 
    126 H126      -83.7241   22.5289  -74.7068 H         1 UNK         0.0793 
    127 H127      -82.4329   24.6273  -71.9909 H         1 UNK         0.2896 
@<TRIPOS>BOND
     1    1    2 1    
     2    1   67 1    
     3    1   68 1    
     4    1   69 1    
     5    2    3 2    
     6    2    4 am   BACKBONE|DICT|INTERRES
     7    4    5 1    
     8    4   70 1    
     9    5    6 1    
    10    5   65 1    
    11    5   71 1    
    12    6    7 1    
    13    6   72 1    
    14    6   73 1    
    15    7    8 1    
    16    8    9 1    
    17    8   74 1    
    18    8   75 1    
    19    9   10 ar   
    20    9   14 ar   
    21   10   11 ar   
    22   10   76 1    
    23   11   12 ar   
    24   11   48 1    
    25   12   13 ar   
    26   12   77 1    
    27   13   14 ar   
    28   13   15 1    
    29   14   78 1    
    30   15   16 1    
    31   15   79 1    
    32   15   80 1    
    33   16   17 1    
    34   17   18 1    
    35   17   81 1    
    36   17   82 1    
    37   18   19 1    
    38   18   22 1    
    39   18   83 1    
    40   19   20 am   BACKBONE|DICT|INTERRES
    41   19   21 2    
    42   20   84 1    
    43   20   85 1    
    44   22   23 am   BACKBONE|DICT|INTERRES
    45   22   86 1    
    46   23   24 2    
    47   23   25 1    
    48   25   26 1    
    49   25   27 1    
    50   25   87 1    
    51   26   88 1    
    52   26   89 1    
    53   26   90 1    
    54   27   28 am   BACKBONE|DICT|INTERRES
    55   27   91 1    
    56   28   29 2    
    57   28   30 1    
    58   30   31 1    
    59   30   32 1    
    60   30   92 1    
    61   31   93 1    
    62   31   94 1    
    63   31   95 1    
    64   32   33 am   BACKBONE|DICT|INTERRES
    65   32   96 1    
    66   33   34 2    
    67   33   35 1    
    68   35   36 1    
    69   35   37 1    
    70   35   97 1    
    71   36   98 1    
    72   36   99 1    
    73   36  100 1    
    74   37   38 am   BACKBONE|DICT|INTERRES
    75   37  101 1    
    76   38   39 2    
    77   38   40 1    
    78   40   41 1    
    79   40   42 1    
    80   40  102 1    
    81   41  103 1    
    82   41  104 1    
    83   41  105 1    
    84   42   43 am   BACKBONE|DICT|INTERRES
    85   42  106 1    
    86   43   44 2    
    87   43   45 1    
    88   45   46 1    
    89   45   49 1    
    90   45  107 1    
    91   46   47 1    
    92   46  108 1    
    93   46  109 1    
    94   47   48 1    
    95   48  110 1    
    96   48  111 1    
    97   49   50 am   BACKBONE|DICT|INTERRES
    98   49  112 1    
    99   50   51 2    
   100   50   52 1    
   101   52   53 1    
   102   52   54 1    
   103   52  113 1    
   104   53  114 1    
   105   53  115 1    
   106   53  116 1    
   107   54   55 am   BACKBONE|DICT|INTERRES
   108   54  117 1    
   109   55   56 2    
   110   55   57 1    
   111   57   58 1    
   112   57   59 1    
   113   57  118 1    
   114   58  119 1    
   115   58  120 1    
   116   58  121 1    
   117   59   60 am   BACKBONE|DICT|INTERRES
   118   59  122 1    
   119   60   61 2    
   120   60   62 1    
   121   62   63 1    
   122   62   64 1    
   123   62  123 1    
   124   63  124 1    
   125   63  125 1    
   126   63  126 1    
   127   64   65 am   BACKBONE|DICT|INTERRES
   128   64  127 1    
   129   65   66 2    
@<TRIPOS>SUBSTRUCTURE
     1 UNK         1 GROUP             0       ****    0 ROOT    
