@<TRIPOS>MOLECULE
3R135
127   129    1
SMALL
USER_CHARGES


@<TRIPOS>ATOM
      1 CA        -77.8304   30.1025  -77.0925 C.3       0 UNK        -0.1998 
      2 C         -78.2577   29.4694  -75.7753 C.2       0 UNK         0.4909 
      3 O         -77.4626   29.4181  -74.8389 O.2       0 UNK        -0.5240 
      4 N         -79.5019   28.9859  -75.7060 N.am      1 UNK        -0.4739 
      5 CA        -80.1061   28.3410  -74.5379 C.3       1 UNK         0.0864 
      6 C6        -81.0303   29.3137  -73.7494 C.3       11 UNK        -0.0881 
      7 S7        -80.1631   30.7346  -72.9962 S.3       11 UNK        -0.2682 
      8 C8        -80.1254   30.2830  -71.2312 C.3       11 UNK         0.0289 
      9 C9        -79.0427   29.2561  -70.9337 C.ar      11 UNK        -0.0687 
     10 C10       -79.3208   27.8900  -71.0316 C.ar      11 UNK        -0.0823 
     11 C11       -78.3213   26.9447  -70.7888 C.ar      11 UNK        -0.0830 
     12 C12       -77.0563   27.3718  -70.3798 C.ar      11 UNK        -0.1021 
     13 C13       -76.7564   28.7349  -70.2959 C.ar      11 UNK        -0.0753 
     14 C14       -77.7570   29.6729  -70.5721 C.ar      11 UNK        -0.0933 
     15 C15       -75.3473   29.1931  -69.9386 C.3       11 UNK         0.0166 
     16 S16       -74.1020   28.4146  -71.0182 S.3       11 UNK        -0.2615 
     17 C17       -72.7808   29.6735  -71.0486 C.3       11 UNK        -0.0865 
     18 CA        -72.9406   30.7094  -72.1964 C.3       10 UNK         0.0862 
     19 C         -71.7023   31.6521  -72.2518 C.2       10 UNK         0.5551 
     20 N         -70.8740   31.6035  -73.2894 N.am      10 UNK        -0.7319 
     21 O         -71.4914   32.4387  -71.3321 O.2       10 UNK        -0.5018 
     22 N         -73.2803   30.0626  -73.4724 N.am      10 UNK        -0.4509 
     23 C         -73.7304   30.6767  -74.5731 C.2       10 UNK         0.4899 
     24 O         -73.9532   31.8865  -74.6399 O.2       10 UNK        -0.4839 
     25 CA        -73.9698   29.7798  -75.8045 C.3       9 UNK         0.0222 
     26 CB        -73.8148   30.5408  -77.1375 C.3       9 UNK        -0.1966 
     27 N         -73.1634   28.5523  -75.8044 N.am      9 UNK        -0.4218 
     28 C         -71.8246   28.4490  -75.8281 C.2       9 UNK         0.5020 
     29 O         -71.0553   29.4112  -75.8263 O.2       9 UNK        -0.5274 
     30 CA        -71.2488   27.0239  -75.8303 C.3       8 UNK         0.0270 
     31 CB        -71.0865   26.5086  -74.3901 C.3       8 UNK        -0.1976 
     32 N         -72.1027   26.1056  -76.5879 N.am      8 UNK        -0.4313 
     33 C         -72.0340   25.9288  -77.9155 C.2       8 UNK         0.5041 
     34 O         -71.1608   26.4238  -78.6294 O.2       8 UNK        -0.5577 
     35 CA        -73.1351   25.0687  -78.5635 C.3       7 UNK         0.0284 
     36 CB        -72.7301   23.5862  -78.5697 C.3       7 UNK        -0.1958 
     37 N         -74.4320   25.2277  -77.8980 N.am      7 UNK        -0.4454 
     38 C         -75.1761   26.3436  -77.9710 C.2       7 UNK         0.5089 
     39 O         -74.9021   27.2940  -78.7028 O.2       7 UNK        -0.5125 
     40 CA        -76.4184   26.4499  -77.0643 C.3       6 UNK         0.0408 
     41 CB        -77.7071   26.2690  -77.8815 C.3       6 UNK        -0.1791 
     42 N         -76.4359   25.5244  -75.9313 N.am      6 UNK        -0.4762 
     43 C         -75.5370   25.4799  -74.9371 C.2       6 UNK         0.5007 
     44 O         -74.5794   26.2503  -74.8528 O.2       6 UNK        -0.5032 
     45 CA        -75.6770   24.3175  -73.9304 C.3       5 UNK         0.0783 
     46 C46       -76.3629   24.7683  -72.6159 C.3       11 UNK        -0.0857 
     47 S47       -78.1740   25.0021  -72.7332 S.3       11 UNK        -0.2512 
     48 C48       -78.5918   25.4674  -71.0211 C.3       11 UNK         0.0225 
     49 N         -76.3137   23.1340  -74.5256 N.am      5 UNK        -0.4615 
     50 C         -75.8286   22.4283  -75.5558 C.2       4 UNK         0.5053 
     51 O         -74.7333   22.6512  -76.0704 O.2       4 UNK        -0.5105 
     52 CA        -76.7463   21.3597  -76.1760 C.3       4 UNK         0.0263 
     53 CB        -76.9366   20.1507  -75.2380 C.3       4 UNK        -0.1981 
     54 N         -78.0269   21.9090  -76.6548 N.am      4 UNK        -0.4224 
     55 C         -79.0316   22.4213  -75.9285 C.2       3 UNK         0.4895 
     56 O         -79.0394   22.4282  -74.6975 O.2       3 UNK        -0.5091 
     57 CA        -80.1858   23.0541  -76.7307 C.3       3 UNK         0.0250 
     58 CB        -81.1207   21.9748  -77.3143 C.3       3 UNK        -0.1996 
     59 N         -80.9371   24.0710  -75.9768 N.am      3 UNK        -0.4254 
     60 C         -81.7388   23.9102  -74.9128 C.2       2 UNK         0.5004 
     61 O         -82.0388   22.8170  -74.4283 O.2       2 UNK        -0.5226 
     62 CA        -82.3277   25.1978  -74.2975 C.3       2 UNK         0.0269 
     63 CB        -83.0407   24.9382  -72.9558 C.3       2 UNK        -0.1926 
     64 N         -81.3423   26.2672  -74.0928 N.am      2 UNK        -0.4687 
     65 C         -80.9206   27.1271  -75.0283 C.2       1 UNK         0.5165 
     66 O         -81.1950   27.0050  -76.2259 O.2       1 UNK        -0.5079 
     67 H67       -78.6137   30.0395  -77.8477 H         1 UNK         0.0900 
     68 H68       -76.9421   29.6094  -77.4856 H         1 UNK         0.0900 
     69 H69       -77.5919   31.1545  -76.9386 H         1 UNK         0.0900 
     70 H70       -80.0924   28.9783  -76.5276 H         1 UNK         0.2959 
     71 H71       -79.3200   27.9620  -73.8805 H         1 UNK         0.1079 
     72 H72       -81.5776   28.7884  -72.9655 H         1 UNK         0.0837 
     73 H73       -81.7969   29.7175  -74.4137 H         1 UNK         0.0837 
     74 H74       -79.9438   31.1862  -70.6467 H         1 UNK         0.0685 
     75 H75       -81.1029   29.9146  -70.9164 H         1 UNK         0.0685 
     76 H76       -80.3080   27.5637  -71.3239 H         1 UNK         0.1434 
     77 H77       -76.2841   26.6432  -70.1757 H         1 UNK         0.1329 
     78 H78       -77.5352   30.7298  -70.5162 H         1 UNK         0.1335 
     79 H79       -75.1332   28.9432  -68.8988 H         1 UNK         0.0680 
     80 H80       -75.2705   30.2781  -70.0248 H         1 UNK         0.0680 
     81 H81       -72.7373   30.1756  -70.0800 H         1 UNK         0.1032 
     82 H82       -71.8324   29.1424  -71.1514 H         1 UNK         0.1032 
     83 H83       -73.7908   31.3450  -71.9416 H         1 UNK         0.0461 
     84 H84       -70.0766   32.2188  -73.3154 H         1 UNK         0.3453 
     85 H85       -71.0424   30.9607  -74.0514 H         1 UNK         0.3453 
     86 H86       -73.1593   29.0615  -73.5002 H         1 UNK         0.2984 
     87 H87       -75.0044   29.4472  -75.7361 H         1 UNK         0.0554 
     88 H88       -74.0045   29.8884  -77.9899 H         1 UNK         0.0847 
     89 H89       -72.8143   30.9593  -77.2503 H         1 UNK         0.0847 
     90 H90       -74.5229   31.3678  -77.2011 H         1 UNK         0.0847 
     91 H91       -73.6937   27.6931  -75.6828 H         1 UNK         0.3141 
     92 H92       -70.2589   27.0619  -76.2903 H         1 UNK         0.0743 
     93 H93       -70.6369   25.5157  -74.3742 H         1 UNK         0.0784 
     94 H94       -70.4357   27.1672  -73.8130 H         1 UNK         0.0784 
     95 H95       -72.0404   26.4525  -73.8643 H         1 UNK         0.0784 
     96 H96       -72.8732   25.6859  -76.0833 H         1 UNK         0.3213 
     97 H97       -73.2435   25.3941  -79.6007 H         1 UNK         0.0855 
     98 H98       -71.8043   23.4397  -79.1278 H         1 UNK         0.0814 
     99 H99       -73.4936   22.9661  -79.0397 H         1 UNK         0.0814 
    100 H100      -72.5634   23.2068  -77.5610 H         1 UNK         0.0814 
    101 H101      -74.7226   24.4782  -77.2810 H         1 UNK         0.3105 
    102 H102      -76.4099   27.4558  -76.6467 H         1 UNK         0.0547 
    103 H103      -77.7506   26.9841  -78.7043 H         1 UNK         0.0837 
    104 H104      -77.7735   25.2706  -78.3151 H         1 UNK         0.0837 
    105 H105      -78.5939   26.4321  -77.2693 H         1 UNK         0.0837 
    106 H106      -77.1812   24.8449  -75.9084 H         1 UNK         0.3020 
    107 H107      -74.6547   24.0271  -73.6769 H         1 UNK         0.1245 
    108 H108      -75.9035   25.6899  -72.2559 H         1 UNK         0.0781 
    109 H109      -76.1748   24.0219  -71.8427 H         1 UNK         0.0781 
    110 H110      -78.0278   24.8547  -70.3161 H         1 UNK         0.0836 
    111 H111      -79.6450   25.2466  -70.8414 H         1 UNK         0.0836 
    112 H112      -77.2596   22.9232  -74.2138 H         1 UNK         0.3022 
    113 H113      -76.2350   20.9926  -77.0676 H         1 UNK         0.0747 
    114 H114      -77.5455   19.3786  -75.7081 H         1 UNK         0.0793 
    115 H115      -75.9751   19.6989  -74.9906 H         1 UNK         0.0793 
    116 H116      -77.4135   20.4245  -74.2967 H         1 UNK         0.0793 
    117 H117      -78.1127   21.9495  -77.6615 H         1 UNK         0.3047 
    118 H118      -79.7382   23.5927  -77.5675 H         1 UNK         0.0822 
    119 H119      -81.5480   21.3403  -76.5373 H         1 UNK         0.0807 
    120 H120      -80.5835   21.3199  -78.0012 H         1 UNK         0.0807 
    121 H121      -81.9435   22.4216  -77.8725 H         1 UNK         0.0807 
    122 H122      -80.7984   25.0297  -76.2792 H         1 UNK         0.2946 
    123 H123      -83.0821   25.5542  -75.0033 H         1 UNK         0.1144 
    124 H124      -83.8425   24.2074  -73.0709 H         1 UNK         0.0793 
    125 H125      -82.3521   24.5521  -72.2031 H         1 UNK         0.0793 
    126 H126      -83.4940   25.8485  -72.5628 H         1 UNK         0.0793 
    127 H127      -81.0153   26.3816  -73.1455 H         1 UNK         0.2896 
@<TRIPOS>BOND
     1    1    2 1    
     2    1   67 1    
     3    1   68 1    
     4    1   69 1    
     5    2    3 2    
     6    2    4 am   BACKBONE|DICT|INTERRES
     7    4    5 1    
     8    4   70 1    
     9    5    6 1    
    10    5   65 1    
    11    5   71 1    
    12    6    7 1    
    13    6   72 1    
    14    6   73 1    
    15    7    8 1    
    16    8    9 1    
    17    8   74 1    
    18    8   75 1    
    19    9   10 ar   
    20    9   14 ar   
    21   10   11 ar   
    22   10   76 1    
    23   11   12 ar   
    24   11   48 1    
    25   12   13 ar   
    26   12   77 1    
    27   13   14 ar   
    28   13   15 1    
    29   14   78 1    
    30   15   16 1    
    31   15   79 1    
    32   15   80 1    
    33   16   17 1    
    34   17   18 1    
    35   17   81 1    
    36   17   82 1    
    37   18   19 1    
    38   18   22 1    
    39   18   83 1    
    40   19   20 am   BACKBONE|DICT|INTERRES
    41   19   21 2    
    42   20   84 1    
    43   20   85 1    
    44   22   23 am   BACKBONE|DICT|INTERRES
    45   22   86 1    
    46   23   24 2    
    47   23   25 1    
    48   25   26 1    
    49   25   27 1    
    50   25   87 1    
    51   26   88 1    
    52   26   89 1    
    53   26   90 1    
    54   27   28 am   BACKBONE|DICT|INTERRES
    55   27   91 1    
    56   28   29 2    
    57   28   30 1    
    58   30   31 1    
    59   30   32 1    
    60   30   92 1    
    61   31   93 1    
    62   31   94 1    
    63   31   95 1    
    64   32   33 am   BACKBONE|DICT|INTERRES
    65   32   96 1    
    66   33   34 2    
    67   33   35 1    
    68   35   36 1    
    69   35   37 1    
    70   35   97 1    
    71   36   98 1    
    72   36   99 1    
    73   36  100 1    
    74   37   38 am   BACKBONE|DICT|INTERRES
    75   37  101 1    
    76   38   39 2    
    77   38   40 1    
    78   40   41 1    
    79   40   42 1    
    80   40  102 1    
    81   41  103 1    
    82   41  104 1    
    83   41  105 1    
    84   42   43 am   BACKBONE|DICT|INTERRES
    85   42  106 1    
    86   43   44 2    
    87   43   45 1    
    88   45   46 1    
    89   45   49 1    
    90   45  107 1    
    91   46   47 1    
    92   46  108 1    
    93   46  109 1    
    94   47   48 1    
    95   48  110 1    
    96   48  111 1    
    97   49   50 am   BACKBONE|DICT|INTERRES
    98   49  112 1    
    99   50   51 2    
   100   50   52 1    
   101   52   53 1    
   102   52   54 1    
   103   52  113 1    
   104   53  114 1    
   105   53  115 1    
   106   53  116 1    
   107   54   55 am   BACKBONE|DICT|INTERRES
   108   54  117 1    
   109   55   56 2    
   110   55   57 1    
   111   57   58 1    
   112   57   59 1    
   113   57  118 1    
   114   58  119 1    
   115   58  120 1    
   116   58  121 1    
   117   59   60 am   BACKBONE|DICT|INTERRES
   118   59  122 1    
   119   60   61 2    
   120   60   62 1    
   121   62   63 1    
   122   62   64 1    
   123   62  123 1    
   124   63  124 1    
   125   63  125 1    
   126   63  126 1    
   127   64   65 am   BACKBONE|DICT|INTERRES
   128   64  127 1    
   129   65   66 2    
@<TRIPOS>SUBSTRUCTURE
     1 UNK         1 GROUP             0       ****    0 ROOT    
