@<TRIPOS>MOLECULE
3R135
127   129    1
SMALL
USER_CHARGES


@<TRIPOS>ATOM
      1 CA        -81.7623   24.4301  -71.1688 C.3       0 UNK        -0.1998 
      2 C         -82.3946   25.4977  -72.0482 C.2       0 UNK         0.4909 
      3 O         -83.5460   25.3517  -72.4589 O.2       0 UNK        -0.5240 
      4 N         -81.6466   26.5682  -72.3441 N.am      1 UNK        -0.4739 
      5 CA        -82.0874   27.6971  -73.1804 C.3       1 UNK         0.0864 
      6 C6        -81.4133   29.0293  -72.7626 C.3       11 UNK        -0.0881 
      7 S7        -81.7759   29.4523  -71.0219 S.3       11 UNK        -0.2682 
      8 C8        -80.4026   30.5834  -70.6028 C.3       11 UNK         0.0289 
      9 C9        -78.9984   29.9778  -70.6584 C.ar      11 UNK        -0.0687 
     10 C10       -78.7672   28.5984  -70.5810 C.ar      11 UNK        -0.0823 
     11 C11       -77.4733   28.0810  -70.6964 C.ar      11 UNK        -0.0830 
     12 C12       -76.3920   28.9584  -70.8176 C.ar      11 UNK        -0.1021 
     13 C13       -76.6009   30.3396  -70.8510 C.ar      11 UNK        -0.0753 
     14 C14       -77.9043   30.8396  -70.7831 C.ar      11 UNK        -0.0933 
     15 C15       -75.4226   31.2988  -70.9259 C.3       11 UNK         0.0166 
     16 S16       -75.0908   31.8657  -72.6247 S.3       11 UNK        -0.2615 
     17 C17       -74.1302   30.4788  -73.3234 C.3       11 UNK        -0.0865 
     18 CA        -72.5972   30.7417  -73.3169 C.3       10 UNK         0.0862 
     19 C         -71.9530   30.3490  -71.9542 C.2       10 UNK         0.5551 
     20 N         -71.3834   29.1565  -71.8236 N.am      10 UNK        -0.7319 
     21 O         -71.9530   31.1395  -71.0145 O.2       10 UNK        -0.5018 
     22 N         -71.9503   30.1292  -74.4883 N.am      10 UNK        -0.4509 
     23 C         -70.6851   30.3365  -74.8748 C.2       10 UNK         0.4899 
     24 O         -69.9196   31.1206  -74.3113 O.2       10 UNK        -0.4839 
     25 CA        -70.1952   29.5192  -76.0896 C.3       9 UNK         0.0222 
     26 CB        -68.7124   29.7778  -76.4196 C.3       9 UNK        -0.1966 
     27 N         -70.3977   28.0760  -75.9132 N.am      9 UNK        -0.4218 
     28 C         -71.5679   27.4400  -76.0481 C.2       9 UNK         0.5020 
     29 O         -72.6271   28.0158  -76.3063 O.2       9 UNK        -0.5274 
     30 CA        -71.5661   25.9268  -75.7831 C.3       8 UNK         0.0270 
     31 CB        -71.8894   25.6471  -74.3061 C.3       8 UNK        -0.1976 
     32 N         -72.5502   25.2507  -76.6287 N.am      8 UNK        -0.4313 
     33 C         -72.4055   25.0599  -77.9474 C.2       8 UNK         0.5041 
     34 O         -71.3707   25.3135  -78.5671 O.2       8 UNK        -0.5577 
     35 CA        -73.6195   24.5029  -78.7086 C.3       7 UNK         0.0284 
     36 CB        -73.7316   22.9818  -78.5190 C.3       7 UNK        -0.1958 
     37 N         -74.8743   25.1426  -78.3099 N.am      7 UNK        -0.4454 
     38 C         -75.2013   26.4197  -78.5590 C.2       7 UNK         0.5089 
     39 O         -74.5041   27.1914  -79.2179 O.2       7 UNK        -0.5125 
     40 CA        -76.5375   26.9197  -77.9850 C.3       6 UNK         0.0408 
     41 CB        -77.6946   26.6217  -78.9527 C.3       6 UNK        -0.1791 
     42 N         -76.8196   26.3146  -76.6823 N.am      6 UNK        -0.4762 
     43 C         -76.4090   26.8176  -75.5080 C.2       6 UNK         0.5007 
     44 O         -75.8386   27.9014  -75.3903 O.2       6 UNK        -0.5032 
     45 CA        -76.6907   25.9834  -74.2411 C.3       5 UNK         0.0783 
     46 C46       -77.9056   26.5688  -73.4852 C.3       11 UNK        -0.0857 
     47 S47       -78.2775   25.6935  -71.9265 S.3       11 UNK        -0.2512 
     48 C48       -77.2392   26.5747  -70.7083 C.3       11 UNK         0.0225 
     49 N         -76.8513   24.5548  -74.5332 N.am      5 UNK        -0.4615 
     50 C         -75.8460   23.7402  -74.8818 C.2       4 UNK         0.5053 
     51 O         -74.6796   24.1111  -75.0056 O.2       4 UNK        -0.5105 
     52 CA        -76.2068   22.2792  -75.2045 C.3       4 UNK         0.0263 
     53 CB        -76.1990   21.4312  -73.9233 C.3       4 UNK        -0.1981 
     54 N         -77.4982   22.1302  -75.8818 N.am      4 UNK        -0.4224 
     55 C         -77.8360   22.7231  -77.0352 C.2       3 UNK         0.4895 
     56 O         -77.0740   23.4450  -77.6781 O.2       3 UNK        -0.5091 
     57 CA        -79.2789   22.5429  -77.5357 C.3       3 UNK         0.0250 
     58 CB        -80.0330   21.3633  -76.8791 C.3       3 UNK        -0.1996 
     59 N         -80.0480   23.7872  -77.4013 N.am      3 UNK        -0.4254 
     60 C         -80.2756   24.4733  -76.2708 C.2       2 UNK         0.5004 
     61 O         -79.8168   24.1560  -75.1677 O.2       2 UNK        -0.5226 
     62 CA        -81.1728   25.7162  -76.3877 C.3       2 UNK         0.0269 
     63 CB        -82.5226   25.3867  -77.0622 C.3       2 UNK        -0.1926 
     64 N         -81.3970   26.2315  -75.0407 N.am      2 UNK        -0.4687 
     65 C         -81.9082   27.4173  -74.6915 C.2       1 UNK         0.5165 
     66 O         -82.2394   28.2760  -75.5103 O.2       1 UNK        -0.5079 
     67 H67       -80.9064   24.8170  -70.6162 H         1 UNK         0.0900 
     68 H68       -82.4867   24.0582  -70.4447 H         1 UNK         0.0900 
     69 H69       -81.4264   23.5922  -71.7792 H         1 UNK         0.0900 
     70 H70       -80.6978   26.6201  -71.9996 H         1 UNK         0.2959 
     71 H71       -83.1628   27.8263  -73.0374 H         1 UNK         0.1079 
     72 H72       -81.7681   29.8551  -73.3824 H         1 UNK         0.0837 
     73 H73       -80.3347   28.9734  -72.9181 H         1 UNK         0.0837 
     74 H74       -80.4576   31.4424  -71.2736 H         1 UNK         0.0685 
     75 H75       -80.5705   30.9667  -69.5957 H         1 UNK         0.0685 
     76 H76       -79.5938   27.9137  -70.4618 H         1 UNK         0.1434 
     77 H77       -75.3858   28.5673  -70.8805 H         1 UNK         0.1329 
     78 H78       -78.0653   31.9086  -70.8225 H         1 UNK         0.1335 
     79 H79       -74.5314   30.8384  -70.4998 H         1 UNK         0.0680 
     80 H80       -75.6300   32.1724  -70.3061 H         1 UNK         0.0680 
     81 H81       -74.4844   30.3594  -74.3491 H         1 UNK         0.1032 
     82 H82       -74.3833   29.5393  -72.8303 H         1 UNK         0.1032 
     83 H83       -72.4398   31.8160  -73.4327 H         1 UNK         0.0461 
     84 H84       -70.9563   28.9076  -70.9455 H         1 UNK         0.3453 
     85 H85       -71.3623   28.5131  -72.5969 H         1 UNK         0.3453 
     86 H86       -72.4940   29.4548  -75.0205 H         1 UNK         0.2984 
     87 H87       -70.7827   29.8482  -76.9495 H         1 UNK         0.0554 
     88 H88       -68.5332   30.8365  -76.6126 H         1 UNK         0.0847 
     89 H89       -68.4028   29.2337  -77.3121 H         1 UNK         0.0847 
     90 H90       -68.0570   29.4806  -75.5998 H         1 UNK         0.0847 
     91 H91       -69.5824   27.5385  -75.6540 H         1 UNK         0.3141 
     92 H92       -70.5771   25.5227  -76.0101 H         1 UNK         0.0743 
     93 H93       -72.8615   26.0542  -74.0230 H         1 UNK         0.0784 
     94 H94       -71.9051   24.5766  -74.0999 H         1 UNK         0.0784 
     95 H95       -71.1425   26.0927  -73.6481 H         1 UNK         0.0784 
     96 H96       -73.4272   24.9917  -76.1840 H         1 UNK         0.3213 
     97 H97       -73.4673   24.7027  -79.7716 H         1 UNK         0.0855 
     98 H98       -73.8663   22.7151  -77.4709 H         1 UNK         0.0814 
     99 H99       -72.8292   22.4790  -78.8693 H         1 UNK         0.0814 
    100 H100      -74.5714   22.5715  -79.0802 H         1 UNK         0.0814 
    101 H101      -75.5634   24.5519  -77.8524 H         1 UNK         0.3105 
    102 H102      -76.4683   28.0042  -77.8745 H         1 UNK         0.0547 
    103 H103      -77.8226   25.5525  -79.1223 H         1 UNK         0.0837 
    104 H104      -77.5149   27.0839  -79.9242 H         1 UNK         0.0837 
    105 H105      -78.6373   27.0184  -78.5767 H         1 UNK         0.0837 
    106 H106      -77.2358   25.3922  -76.6932 H         1 UNK         0.3020 
    107 H107      -75.8131   26.0930  -73.5996 H         1 UNK         0.1245 
    108 H108      -78.7955   26.5145  -74.1121 H         1 UNK         0.0781 
    109 H109      -77.7578   27.6308  -73.2832 H         1 UNK         0.0781 
    110 H110      -76.1930   26.3467  -70.9182 H         1 UNK         0.0836 
    111 H111      -77.4467   26.1766  -69.7143 H         1 UNK         0.0836 
    112 H112      -77.7978   24.1918  -74.4900 H         1 UNK         0.3022 
    113 H113      -75.4394   21.8899  -75.8755 H         1 UNK         0.0747 
    114 H114      -76.3633   20.3762  -74.1435 H         1 UNK         0.0793 
    115 H115      -75.2384   21.5077  -73.4115 H         1 UNK         0.0793 
    116 H116      -76.9691   21.7532  -73.2209 H         1 UNK         0.0793 
    117 H117      -78.2045   21.5913  -75.4021 H         1 UNK         0.3047 
    118 H118      -79.2037   22.3328  -78.6038 H         1 UNK         0.0822 
    119 H119      -81.0058   21.2171  -77.3487 H         1 UNK         0.0807 
    120 H120      -80.2079   21.5184  -75.8139 H         1 UNK         0.0807 
    121 H121      -79.4820   20.4289  -76.9949 H         1 UNK         0.0807 
    122 H122      -80.4407   24.1431  -78.2615 H         1 UNK         0.2946 
    123 H123      -80.6387   26.4702  -76.9697 H         1 UNK         0.1144 
    124 H124      -82.3872   25.0401  -78.0869 H         1 UNK         0.0793 
    125 H125      -83.1709   26.2613  -77.1135 H         1 UNK         0.0793 
    126 H126      -83.0603   24.6076  -76.5201 H         1 UNK         0.0793 
    127 H127      -81.1011   25.5934  -74.3111 H         1 UNK         0.2896 
@<TRIPOS>BOND
     1    1    2 1    
     2    1   67 1    
     3    1   68 1    
     4    1   69 1    
     5    2    3 2    
     6    2    4 am   BACKBONE|DICT|INTERRES
     7    4    5 1    
     8    4   70 1    
     9    5    6 1    
    10    5   65 1    
    11    5   71 1    
    12    6    7 1    
    13    6   72 1    
    14    6   73 1    
    15    7    8 1    
    16    8    9 1    
    17    8   74 1    
    18    8   75 1    
    19    9   10 ar   
    20    9   14 ar   
    21   10   11 ar   
    22   10   76 1    
    23   11   12 ar   
    24   11   48 1    
    25   12   13 ar   
    26   12   77 1    
    27   13   14 ar   
    28   13   15 1    
    29   14   78 1    
    30   15   16 1    
    31   15   79 1    
    32   15   80 1    
    33   16   17 1    
    34   17   18 1    
    35   17   81 1    
    36   17   82 1    
    37   18   19 1    
    38   18   22 1    
    39   18   83 1    
    40   19   20 am   BACKBONE|DICT|INTERRES
    41   19   21 2    
    42   20   84 1    
    43   20   85 1    
    44   22   23 am   BACKBONE|DICT|INTERRES
    45   22   86 1    
    46   23   24 2    
    47   23   25 1    
    48   25   26 1    
    49   25   27 1    
    50   25   87 1    
    51   26   88 1    
    52   26   89 1    
    53   26   90 1    
    54   27   28 am   BACKBONE|DICT|INTERRES
    55   27   91 1    
    56   28   29 2    
    57   28   30 1    
    58   30   31 1    
    59   30   32 1    
    60   30   92 1    
    61   31   93 1    
    62   31   94 1    
    63   31   95 1    
    64   32   33 am   BACKBONE|DICT|INTERRES
    65   32   96 1    
    66   33   34 2    
    67   33   35 1    
    68   35   36 1    
    69   35   37 1    
    70   35   97 1    
    71   36   98 1    
    72   36   99 1    
    73   36  100 1    
    74   37   38 am   BACKBONE|DICT|INTERRES
    75   37  101 1    
    76   38   39 2    
    77   38   40 1    
    78   40   41 1    
    79   40   42 1    
    80   40  102 1    
    81   41  103 1    
    82   41  104 1    
    83   41  105 1    
    84   42   43 am   BACKBONE|DICT|INTERRES
    85   42  106 1    
    86   43   44 2    
    87   43   45 1    
    88   45   46 1    
    89   45   49 1    
    90   45  107 1    
    91   46   47 1    
    92   46  108 1    
    93   46  109 1    
    94   47   48 1    
    95   48  110 1    
    96   48  111 1    
    97   49   50 am   BACKBONE|DICT|INTERRES
    98   49  112 1    
    99   50   51 2    
   100   50   52 1    
   101   52   53 1    
   102   52   54 1    
   103   52  113 1    
   104   53  114 1    
   105   53  115 1    
   106   53  116 1    
   107   54   55 am   BACKBONE|DICT|INTERRES
   108   54  117 1    
   109   55   56 2    
   110   55   57 1    
   111   57   58 1    
   112   57   59 1    
   113   57  118 1    
   114   58  119 1    
   115   58  120 1    
   116   58  121 1    
   117   59   60 am   BACKBONE|DICT|INTERRES
   118   59  122 1    
   119   60   61 2    
   120   60   62 1    
   121   62   63 1    
   122   62   64 1    
   123   62  123 1    
   124   63  124 1    
   125   63  125 1    
   126   63  126 1    
   127   64   65 am   BACKBONE|DICT|INTERRES
   128   64  127 1    
   129   65   66 2    
@<TRIPOS>SUBSTRUCTURE
     1 UNK         1 GROUP             0       ****    0 ROOT    
