@<TRIPOS>MOLECULE
3R135
127   129    1
SMALL
USER_CHARGES


@<TRIPOS>ATOM
      1 CA        -76.1618   24.8428  -69.4556 C.3       0 UNK        -0.1998 
      2 C         -77.4985   24.2451  -69.8692 C.2       0 UNK         0.4909 
      3 O         -77.8436   23.1482  -69.4298 O.2       0 UNK        -0.5240 
      4 N         -78.2535   24.9606  -70.7125 N.am      1 UNK        -0.4739 
      5 CA        -79.5596   24.5474  -71.2445 C.3       1 UNK         0.0864 
      6 C6        -80.3686   25.7433  -71.8152 C.3       11 UNK        -0.0881 
      7 S7        -79.3873   26.9293  -72.8080 S.3       11 UNK        -0.2682 
      8 C8        -79.5638   28.4080  -71.7587 C.3       11 UNK         0.0289 
      9 C9        -78.8036   29.6123  -72.2935 C.ar      11 UNK        -0.0687 
     10 C10       -79.1563   30.1803  -73.5204 C.ar      11 UNK        -0.0823 
     11 C11       -78.5045   31.3257  -73.9911 C.ar      11 UNK        -0.0830 
     12 C12       -77.5006   31.9118  -73.2123 C.ar      11 UNK        -0.1021 
     13 C13       -77.1576   31.3685  -71.9703 C.ar      11 UNK        -0.0753 
     14 C14       -77.8002   30.2096  -71.5250 C.ar      11 UNK        -0.0933 
     15 C15       -76.1541   32.0718  -71.0672 C.3       11 UNK         0.0166 
     16 S16       -74.5685   31.1890  -70.9700 S.3       11 UNK        -0.2615 
     17 C17       -73.7377   31.7194  -72.5093 C.3       11 UNK        -0.0865 
     18 CA        -73.7511   30.6428  -73.6339 C.3       10 UNK         0.0862 
     19 C         -73.0377   31.1357  -74.9310 C.2       10 UNK         0.5551 
     20 N         -72.4075   30.2650  -75.7089 N.am      10 UNK        -0.7319 
     21 O         -73.0702   32.3222  -75.2493 O.2       10 UNK        -0.5018 
     22 N         -73.3256   29.3121  -73.1643 N.am      10 UNK        -0.4509 
     23 C         -72.1246   28.9824  -72.6681 C.2       10 UNK         0.4899 
     24 O         -71.1807   29.7679  -72.5740 O.2       10 UNK        -0.4839 
     25 CA        -71.9373   27.5362  -72.1608 C.3       9 UNK         0.0222 
     26 CB        -71.8199   27.5221  -70.6269 C.3       9 UNK        -0.1966 
     27 N         -73.0043   26.6104  -72.5599 N.am      9 UNK        -0.4218 
     28 C         -73.2201   26.1868  -73.8121 C.2       9 UNK         0.5020 
     29 O         -72.4983   26.5047  -74.7603 O.2       9 UNK        -0.5274 
     30 CA        -74.4577   25.2863  -74.0164 C.3       8 UNK         0.0270 
     31 CB        -75.7358   25.9367  -73.4481 C.3       8 UNK        -0.1976 
     32 N         -74.6873   25.0021  -75.4309 N.am      8 UNK        -0.4313 
     33 C         -73.9983   24.1319  -76.1800 C.2       8 UNK         0.5041 
     34 O         -73.1888   23.3205  -75.7271 O.2       8 UNK        -0.5577 
     35 CA        -74.2303   24.2035  -77.6993 C.3       7 UNK         0.0284 
     36 CB        -75.3982   23.3066  -78.1338 C.3       7 UNK        -0.1958 
     37 N         -74.4829   25.5791  -78.1348 N.am      7 UNK        -0.4454 
     38 C         -73.5216   26.4877  -78.3490 C.2       7 UNK         0.5089 
     39 O         -72.3181   26.2268  -78.3402 O.2       7 UNK        -0.5125 
     40 CA        -73.9697   27.9300  -78.6455 C.3       6 UNK         0.0408 
     41 CB        -73.9062   28.2101  -80.1556 C.3       6 UNK        -0.1791 
     42 N         -75.3160   28.2434  -78.1582 N.am      6 UNK        -0.4762 
     43 C         -75.6344   28.4657  -76.8739 C.2       6 UNK         0.5007 
     44 O         -74.8405   28.3903  -75.9400 O.2       6 UNK        -0.5032 
     45 CA        -77.1074   28.8090  -76.5894 C.3       5 UNK         0.0783 
     46 C46       -77.3684   30.2946  -76.9465 C.3       11 UNK        -0.0857 
     47 S47       -79.0991   30.8011  -76.6802 S.3       11 UNK        -0.2512 
     48 C48       -78.9319   31.9801  -75.3005 C.3       11 UNK         0.0225 
     49 N         -78.0396   27.8990  -77.2688 N.am      5 UNK        -0.4615 
     50 C         -78.0637   26.5657  -77.1505 C.2       4 UNK         0.5053 
     51 O         -77.2367   25.9106  -76.5133 O.2       4 UNK        -0.5105 
     52 CA        -79.1698   25.8447  -77.9231 C.3       4 UNK         0.0263 
     53 CB        -78.7307   25.5674  -79.3715 C.3       4 UNK        -0.1981 
     54 N         -79.4875   24.5833  -77.2590 N.am      4 UNK        -0.4224 
     55 C         -80.7044   24.0359  -77.1818 C.2       3 UNK         0.4895 
     56 O         -81.7069   24.5444  -77.6864 O.2       3 UNK        -0.5091 
     57 CA        -80.8648   22.7042  -76.4220 C.3       3 UNK         0.0250 
     58 CB        -80.7816   21.5092  -77.3924 C.3       3 UNK        -0.1996 
     59 N         -79.9819   22.5112  -75.2612 N.am      3 UNK        -0.4254 
     60 C         -78.6535   22.3461  -75.2200 C.2       2 UNK         0.5004 
     61 O         -77.9325   22.3991  -76.2148 O.2       2 UNK        -0.5226 
     62 CA        -78.0330   22.0949  -73.8303 C.3       2 UNK         0.0269 
     63 CB        -76.5105   21.8753  -73.8951 C.3       2 UNK        -0.1926 
     64 N         -78.3122   23.1755  -72.8795 N.am      2 UNK        -0.4687 
     65 C         -79.4795   23.3837  -72.2549 C.2       1 UNK         0.5165 
     66 O         -80.4795   22.6899  -72.4505 O.2       1 UNK        -0.5079 
     67 H67       -76.0548   25.8740  -69.7909 H         1 UNK         0.0900 
     68 H68       -75.3437   24.2581  -69.8751 H         1 UNK         0.0900 
     69 H69       -76.0663   24.8319  -68.3702 H         1 UNK         0.0900 
     70 H70       -77.9306   25.8592  -71.0430 H         1 UNK         0.2959 
     71 H71       -80.1321   24.1489  -70.4033 H         1 UNK         0.1079 
     72 H72       -81.2133   25.4030  -72.4182 H         1 UNK         0.0837 
     73 H73       -80.8268   26.2758  -70.9804 H         1 UNK         0.0837 
     74 H74       -80.6208   28.6674  -71.6822 H         1 UNK         0.0685 
     75 H75       -79.2314   28.1654  -70.7481 H         1 UNK         0.0685 
     76 H76       -79.9518   29.7349  -74.1024 H         1 UNK         0.1434 
     77 H77       -77.0128   32.8150  -73.5532 H         1 UNK         0.1329 
     78 H78       -77.5406   29.7965  -70.5597 H         1 UNK         0.1335 
     79 H79       -75.9890   33.1017  -71.3873 H         1 UNK         0.0680 
     80 H80       -76.5724   32.1369  -70.0617 H         1 UNK         0.0680 
     81 H81       -72.7097   31.9845  -72.2573 H         1 UNK         0.1032 
     82 H82       -74.1987   32.6423  -72.8647 H         1 UNK         0.1032 
     83 H83       -74.7924   30.5114  -73.9304 H         1 UNK         0.0461 
     84 H84       -72.4547   29.2799  -75.4913 H         1 UNK         0.3453 
     85 H85       -71.9491   30.5839  -76.5465 H         1 UNK         0.3453 
     86 H86       -74.0195   28.5857  -73.2524 H         1 UNK         0.2984 
     87 H87       -70.9977   27.1671  -72.5773 H         1 UNK         0.0554 
     88 H88       -71.6160   26.5195  -70.2505 H         1 UNK         0.0847 
     89 H89       -72.7312   27.8848  -70.1492 H         1 UNK         0.0847 
     90 H90       -71.0026   28.1623  -70.2917 H         1 UNK         0.0847 
     91 H91       -73.6295   26.3055  -71.8287 H         1 UNK         0.3141 
     92 H92       -74.2773   24.3440  -73.4955 H         1 UNK         0.0743 
     93 H93       -75.8900   26.9398  -73.8479 H         1 UNK         0.0784 
     94 H94       -76.6217   25.3538  -73.6990 H         1 UNK         0.0784 
     95 H95       -75.7014   26.0181  -72.3623 H         1 UNK         0.0784 
     96 H96       -75.3739   25.5892  -75.8930 H         1 UNK         0.3213 
     97 H97       -73.3253   23.8339  -78.1868 H         1 UNK         0.0855 
     98 H98       -76.3507   23.6837  -77.7649 H         1 UNK         0.0814 
     99 H99       -75.2795   22.2919  -77.7512 H         1 UNK         0.0814 
    100 H100      -75.4643   23.2404  -79.2196 H         1 UNK         0.0814 
    101 H101      -75.4433   25.8912  -78.1333 H         1 UNK         0.3105 
    102 H102      -73.2641   28.5982  -78.1470 H         1 UNK         0.0547 
    103 H103      -72.9057   28.0183  -80.5458 H         1 UNK         0.0837 
    104 H104      -74.5991   27.5795  -80.7141 H         1 UNK         0.0837 
    105 H105      -74.1430   29.2508  -80.3775 H         1 UNK         0.0837 
    106 H106      -76.0459   28.3175  -78.8524 H         1 UNK         0.3020 
    107 H107      -77.2647   28.6818  -75.5153 H         1 UNK         0.1245 
    108 H108      -77.1335   30.4879  -77.9951 H         1 UNK         0.0781 
    109 H109      -76.7084   30.9443  -76.3674 H         1 UNK         0.0781 
    110 H110      -79.8942   32.4689  -75.1432 H         1 UNK         0.0836 
    111 H111      -78.2340   32.7669  -75.5915 H         1 UNK         0.0836 
    112 H112      -78.7592   28.3513  -77.8144 H         1 UNK         0.3022 
    113 H113      -80.0517   26.4891  -77.9287 H         1 UNK         0.0747 
    114 H114      -79.5254   25.0815  -79.9379 H         1 UNK         0.0793 
    115 H115      -78.4823   26.4925  -79.8933 H         1 UNK         0.0793 
    116 H116      -77.8524   24.9222  -79.4104 H         1 UNK         0.0793 
    117 H117      -78.7065   24.1052  -76.8156 H         1 UNK         0.3047 
    118 H118      -81.8750   22.7142  -76.0091 H         1 UNK         0.0822 
    119 H119      -80.9783   20.5672  -76.8806 H         1 UNK         0.0807 
    120 H120      -79.8023   21.4362  -77.8666 H         1 UNK         0.0807 
    121 H121      -81.5192   21.6044  -78.1904 H         1 UNK         0.0807 
    122 H122      -80.4523   22.5042  -74.3595 H         1 UNK         0.2946 
    123 H123      -78.4809   21.1745  -73.4482 H         1 UNK         0.1144 
    124 H124      -76.0950   21.6576  -72.9111 H         1 UNK         0.0793 
    125 H125      -75.9972   22.7496  -74.2927 H         1 UNK         0.0793 
    126 H126      -76.2640   21.0336  -74.5437 H         1 UNK         0.0793 
    127 H127      -77.5531   23.8071  -72.6751 H         1 UNK         0.2896 
@<TRIPOS>BOND
     1    1    2 1    
     2    1   67 1    
     3    1   68 1    
     4    1   69 1    
     5    2    3 2    
     6    2    4 am   BACKBONE|DICT|INTERRES
     7    4    5 1    
     8    4   70 1    
     9    5    6 1    
    10    5   65 1    
    11    5   71 1    
    12    6    7 1    
    13    6   72 1    
    14    6   73 1    
    15    7    8 1    
    16    8    9 1    
    17    8   74 1    
    18    8   75 1    
    19    9   10 ar   
    20    9   14 ar   
    21   10   11 ar   
    22   10   76 1    
    23   11   12 ar   
    24   11   48 1    
    25   12   13 ar   
    26   12   77 1    
    27   13   14 ar   
    28   13   15 1    
    29   14   78 1    
    30   15   16 1    
    31   15   79 1    
    32   15   80 1    
    33   16   17 1    
    34   17   18 1    
    35   17   81 1    
    36   17   82 1    
    37   18   19 1    
    38   18   22 1    
    39   18   83 1    
    40   19   20 am   BACKBONE|DICT|INTERRES
    41   19   21 2    
    42   20   84 1    
    43   20   85 1    
    44   22   23 am   BACKBONE|DICT|INTERRES
    45   22   86 1    
    46   23   24 2    
    47   23   25 1    
    48   25   26 1    
    49   25   27 1    
    50   25   87 1    
    51   26   88 1    
    52   26   89 1    
    53   26   90 1    
    54   27   28 am   BACKBONE|DICT|INTERRES
    55   27   91 1    
    56   28   29 2    
    57   28   30 1    
    58   30   31 1    
    59   30   32 1    
    60   30   92 1    
    61   31   93 1    
    62   31   94 1    
    63   31   95 1    
    64   32   33 am   BACKBONE|DICT|INTERRES
    65   32   96 1    
    66   33   34 2    
    67   33   35 1    
    68   35   36 1    
    69   35   37 1    
    70   35   97 1    
    71   36   98 1    
    72   36   99 1    
    73   36  100 1    
    74   37   38 am   BACKBONE|DICT|INTERRES
    75   37  101 1    
    76   38   39 2    
    77   38   40 1    
    78   40   41 1    
    79   40   42 1    
    80   40  102 1    
    81   41  103 1    
    82   41  104 1    
    83   41  105 1    
    84   42   43 am   BACKBONE|DICT|INTERRES
    85   42  106 1    
    86   43   44 2    
    87   43   45 1    
    88   45   46 1    
    89   45   49 1    
    90   45  107 1    
    91   46   47 1    
    92   46  108 1    
    93   46  109 1    
    94   47   48 1    
    95   48  110 1    
    96   48  111 1    
    97   49   50 am   BACKBONE|DICT|INTERRES
    98   49  112 1    
    99   50   51 2    
   100   50   52 1    
   101   52   53 1    
   102   52   54 1    
   103   52  113 1    
   104   53  114 1    
   105   53  115 1    
   106   53  116 1    
   107   54   55 am   BACKBONE|DICT|INTERRES
   108   54  117 1    
   109   55   56 2    
   110   55   57 1    
   111   57   58 1    
   112   57   59 1    
   113   57  118 1    
   114   58  119 1    
   115   58  120 1    
   116   58  121 1    
   117   59   60 am   BACKBONE|DICT|INTERRES
   118   59  122 1    
   119   60   61 2    
   120   60   62 1    
   121   62   63 1    
   122   62   64 1    
   123   62  123 1    
   124   63  124 1    
   125   63  125 1    
   126   63  126 1    
   127   64   65 am   BACKBONE|DICT|INTERRES
   128   64  127 1    
   129   65   66 2    
@<TRIPOS>SUBSTRUCTURE
     1 UNK         1 GROUP             0       ****    0 ROOT    
