@<TRIPOS>MOLECULE
3R135
127   129    1
SMALL
USER_CHARGES


@<TRIPOS>ATOM
      1 CA        -83.1451   26.5586  -69.8157 C.3       0 UNK        -0.1998 
      2 C         -82.5394   26.6893  -71.2045 C.2       0 UNK         0.4909 
      3 O         -81.3744   26.3421  -71.3932 O.2       0 UNK        -0.5240 
      4 N         -83.3285   27.1710  -72.1756 N.am      1 UNK        -0.4739 
      5 CA        -82.9992   27.4538  -73.5876 C.3       1 UNK         0.0864 
      6 C6        -81.8641   28.4943  -73.7993 C.3       11 UNK        -0.0881 
      7 S7        -82.0553   29.9998  -72.7780 S.3       11 UNK        -0.2682 
      8 C8        -80.4737   30.8651  -73.0800 C.3       11 UNK         0.0289 
      9 C9        -79.2768   30.4075  -72.2395 C.ar      11 UNK        -0.0687 
     10 C10       -79.2061   29.1459  -71.6350 C.ar      11 UNK        -0.0823 
     11 C11       -78.0615   28.7403  -70.9450 C.ar      11 UNK        -0.0830 
     12 C12       -76.9961   29.6306  -70.7987 C.ar      11 UNK        -0.1021 
     13 C13       -77.0432   30.8907  -71.4006 C.ar      11 UNK        -0.0753 
     14 C14       -78.1826   31.2706  -72.1167 C.ar      11 UNK        -0.0933 
     15 C15       -75.8474   31.8262  -71.3174 C.3       11 UNK         0.0166 
     16 S16       -74.6809   31.5221  -72.6832 S.3       11 UNK        -0.2615 
     17 C17       -73.9234   29.9469  -72.1579 C.3       11 UNK        -0.0865 
     18 CA        -72.5022   29.7607  -72.7405 C.3       10 UNK         0.0862 
     19 C         -71.7727   28.5807  -72.0515 C.2       10 UNK         0.5551 
     20 N         -70.7078   28.8505  -71.3096 N.am      10 UNK        -0.7319 
     21 O         -72.1925   27.4303  -72.1518 O.2       10 UNK        -0.5018 
     22 N         -72.5431   29.5288  -74.1872 N.am      10 UNK        -0.4509 
     23 C         -71.5921   29.9120  -75.0447 C.2       10 UNK         0.4899 
     24 O         -70.6433   30.6402  -74.7459 O.2       10 UNK        -0.4839 
     25 CA        -71.7210   29.3433  -76.4691 C.3       9 UNK         0.0222 
     26 CB        -70.6305   29.8534  -77.4347 C.3       9 UNK        -0.1966 
     27 N         -71.7681   27.8770  -76.4534 N.am      9 UNK        -0.4218 
     28 C         -70.8386   27.0288  -75.9830 C.2       9 UNK         0.5020 
     29 O         -69.7374   27.3774  -75.5547 O.2       9 UNK        -0.5274 
     30 CA        -71.1894   25.5286  -75.9717 C.3       8 UNK         0.0270 
     31 CB        -71.4911   25.0629  -74.5386 C.3       8 UNK        -0.1976 
     32 N         -72.3205   25.1810  -76.8363 N.am      8 UNK        -0.4313 
     33 C         -72.2673   25.1476  -78.1750 C.2       8 UNK         0.5041 
     34 O         -71.2400   25.3446  -78.8253 O.2       8 UNK        -0.5577 
     35 CA        -73.5866   24.8770  -78.9154 C.3       7 UNK         0.0284 
     36 CB        -73.8870   23.3699  -78.9538 C.3       7 UNK        -0.1958 
     37 N         -74.7269   25.5919  -78.3356 N.am      7 UNK        -0.4454 
     38 C         -74.8680   26.9250  -78.3046 C.2       7 UNK         0.5089 
     39 O         -74.0472   27.7139  -78.7716 O.2       7 UNK        -0.5125 
     40 CA        -76.1175   27.4735  -77.5952 C.3       6 UNK         0.0408 
     41 CB        -77.3647   27.3425  -78.4839 C.3       6 UNK        -0.1791 
     42 N         -76.3483   26.8186  -76.3065 N.am      6 UNK        -0.4762 
     43 C         -75.5632   26.9796  -75.2307 C.2       6 UNK         0.5007 
     44 O         -74.5973   27.7438  -75.1976 O.2       6 UNK        -0.5032 
     45 CA        -75.8877   26.1263  -73.9889 C.3       5 UNK         0.0783 
     46 C46       -76.8733   26.8668  -73.0521 C.3       11 UNK        -0.0857 
     47 S47       -76.6940   26.3246  -71.3166 S.3       11 UNK        -0.2512 
     48 C48       -77.9533   27.3118  -70.4265 C.3       11 UNK         0.0225 
     49 N         -76.3687   24.7883  -74.3534 N.am      5 UNK        -0.4615 
     50 C         -75.6147   23.8553  -74.9519 C.2       4 UNK         0.5053 
     51 O         -74.4330   24.0196  -75.2518 O.2       4 UNK        -0.5105 
     52 CA        -76.3074   22.5352  -75.3286 C.3       4 UNK         0.0263 
     53 CB        -76.4697   21.6343  -74.0940 C.3       4 UNK        -0.1981 
     54 N         -77.6094   22.7307  -75.9716 N.am      4 UNK        -0.4224 
     55 C         -77.8079   23.4036  -77.1150 C.2       3 UNK         0.4895 
     56 O         -76.9022   23.9139  -77.7708 O.2       3 UNK        -0.5091 
     57 CA        -79.2559   23.5609  -77.6103 C.3       3 UNK         0.0250 
     58 CB        -79.5599   22.5271  -78.7060 C.3       3 UNK        -0.1996 
     59 N         -80.2695   23.4645  -76.5553 N.am      3 UNK        -0.4254 
     60 C         -80.3898   24.3167  -75.5286 C.2       2 UNK         0.5004 
     61 O         -79.6220   25.2619  -75.3237 O.2       2 UNK        -0.5226 
     62 CA        -81.5231   24.0124  -74.5369 C.3       2 UNK         0.0269 
     63 CB        -81.0386   23.0243  -73.4628 C.3       2 UNK        -0.1926 
     64 N         -81.9921   25.2262  -73.8755 N.am      2 UNK        -0.4687 
     65 C         -82.7284   26.1912  -74.4365 C.2       1 UNK         0.5165 
     66 O         -83.1957   26.1134  -75.5740 O.2       1 UNK        -0.5079 
     67 H67       -84.1811   26.8955  -69.7879 H         1 UNK         0.0900 
     68 H68       -83.1164   25.5190  -69.4907 H         1 UNK         0.0900 
     69 H69       -82.5754   27.1546  -69.1032 H         1 UNK         0.0900 
     70 H70       -84.2817   27.4006  -71.9304 H         1 UNK         0.2959 
     71 H71       -83.9096   27.8942  -73.9983 H         1 UNK         0.1079 
     72 H72       -81.8443   28.8071  -74.8451 H         1 UNK         0.0837 
     73 H73       -80.8903   28.0395  -73.6185 H         1 UNK         0.0837 
     74 H74       -80.2163   30.7811  -74.1367 H         1 UNK         0.0685 
     75 H75       -80.6477   31.9258  -72.8925 H         1 UNK         0.0685 
     76 H76       -80.0261   28.4527  -71.7160 H         1 UNK         0.1434 
     77 H77       -76.1101   29.3176  -70.2642 H         1 UNK         0.1329 
     78 H78       -78.2089   32.2395  -72.5970 H         1 UNK         0.1335 
     79 H79       -75.3397   31.7176  -70.3577 H         1 UNK         0.0680 
     80 H80       -76.1831   32.8632  -71.3669 H         1 UNK         0.0680 
     81 H81       -74.5739   29.1200  -72.4490 H         1 UNK         0.1032 
     82 H82       -73.8809   29.9351  -71.0672 H         1 UNK         0.1032 
     83 H83       -71.9419   30.6764  -72.5388 H         1 UNK         0.0461 
     84 H84       -70.2320   28.0944  -70.8429 H         1 UNK         0.3453 
     85 H85       -70.3595   29.7926  -71.2214 H         1 UNK         0.3453 
     86 H86       -73.2681   28.8952  -74.5161 H         1 UNK         0.2984 
     87 H87       -72.6859   29.6771  -76.8541 H         1 UNK         0.0554 
     88 H88       -70.6595   30.9408  -77.5135 H         1 UNK         0.0847 
     89 H89       -70.7722   29.4512  -78.4378 H         1 UNK         0.0847 
     90 H90       -69.6289   29.5796  -77.1020 H         1 UNK         0.0847 
     91 H91       -72.6436   27.4764  -76.7639 H         1 UNK         0.3141 
     92 H92       -70.3098   24.9871  -76.3259 H         1 UNK         0.0743 
     93 H93       -70.6633   25.2931  -73.8664 H         1 UNK         0.0784 
     94 H94       -72.3796   25.5528  -74.1383 H         1 UNK         0.0784 
     95 H95       -71.6549   23.9860  -74.4961 H         1 UNK         0.0784 
     96 H96       -73.1890   24.9263  -76.3691 H         1 UNK         0.3213 
     97 H97       -73.4659   25.2267  -79.9429 H         1 UNK         0.0855 
     98 H98       -74.0576   22.9668  -77.9548 H         1 UNK         0.0814 
     99 H99       -73.0566   22.8160  -79.3938 H         1 UNK         0.0814 
    100 H100      -74.7723   23.1581  -79.5537 H         1 UNK         0.0814 
    101 H101      -75.4838   25.0149  -77.9701 H         1 UNK         0.3105 
    102 H102      -75.9540   28.5368  -77.4059 H         1 UNK         0.0547 
    103 H103      -77.2278   27.8794  -79.4234 H         1 UNK         0.0837 
    104 H104      -78.2451   27.7621  -77.9970 H         1 UNK         0.0837 
    105 H105      -77.5829   26.3047  -78.7346 H         1 UNK         0.0837 
    106 H106      -77.1135   26.1603  -76.2520 H         1 UNK         0.3020 
    107 H107      -74.9375   26.0034  -73.4622 H         1 UNK         0.1245 
    108 H108      -77.9075   26.7327  -73.3761 H         1 UNK         0.0781 
    109 H109      -76.6841   27.9414  -73.0784 H         1 UNK         0.0781 
    110 H110      -77.7070   27.3289  -69.3641 H         1 UNK         0.0836 
    111 H111      -78.9124   26.7990  -70.5066 H         1 UNK         0.0836 
    112 H112      -77.3439   24.5943  -74.1753 H         1 UNK         0.3022 
    113 H113      -75.6629   22.0198  -76.0439 H         1 UNK         0.0747 
    114 H114      -77.1391   22.0747  -73.3538 H         1 UNK         0.0793 
    115 H115      -76.8666   20.6560  -74.3661 H         1 UNK         0.0793 
    116 H116      -75.5087   21.4669  -73.6054 H         1 UNK         0.0793 
    117 H117      -78.4136   22.3387  -75.5054 H         1 UNK         0.3047 
    118 H118      -79.3361   24.5571  -78.0505 H         1 UNK         0.0822 
    119 H119      -80.5462   22.6873  -79.1418 H         1 UNK         0.0807 
    120 H120      -79.5223   21.5069  -78.3218 H         1 UNK         0.0807 
    121 H121      -78.8351   22.5955  -79.5189 H         1 UNK         0.0807 
    122 H122      -80.9307   22.7049  -76.6379 H         1 UNK         0.2946 
    123 H123      -82.3617   23.5704  -75.0801 H         1 UNK         0.1144 
    124 H124      -80.2001   23.4282  -72.8932 H         1 UNK         0.0793 
    125 H125      -80.7103   22.0844  -73.9084 H         1 UNK         0.0793 
    126 H126      -81.8351   22.7849  -72.7578 H         1 UNK         0.0793 
    127 H127      -81.6177   25.4229  -72.9495 H         1 UNK         0.2896 
@<TRIPOS>BOND
     1    1    2 1    
     2    1   67 1    
     3    1   68 1    
     4    1   69 1    
     5    2    3 2    
     6    2    4 am   BACKBONE|DICT|INTERRES
     7    4    5 1    
     8    4   70 1    
     9    5    6 1    
    10    5   65 1    
    11    5   71 1    
    12    6    7 1    
    13    6   72 1    
    14    6   73 1    
    15    7    8 1    
    16    8    9 1    
    17    8   74 1    
    18    8   75 1    
    19    9   10 ar   
    20    9   14 ar   
    21   10   11 ar   
    22   10   76 1    
    23   11   12 ar   
    24   11   48 1    
    25   12   13 ar   
    26   12   77 1    
    27   13   14 ar   
    28   13   15 1    
    29   14   78 1    
    30   15   16 1    
    31   15   79 1    
    32   15   80 1    
    33   16   17 1    
    34   17   18 1    
    35   17   81 1    
    36   17   82 1    
    37   18   19 1    
    38   18   22 1    
    39   18   83 1    
    40   19   20 am   BACKBONE|DICT|INTERRES
    41   19   21 2    
    42   20   84 1    
    43   20   85 1    
    44   22   23 am   BACKBONE|DICT|INTERRES
    45   22   86 1    
    46   23   24 2    
    47   23   25 1    
    48   25   26 1    
    49   25   27 1    
    50   25   87 1    
    51   26   88 1    
    52   26   89 1    
    53   26   90 1    
    54   27   28 am   BACKBONE|DICT|INTERRES
    55   27   91 1    
    56   28   29 2    
    57   28   30 1    
    58   30   31 1    
    59   30   32 1    
    60   30   92 1    
    61   31   93 1    
    62   31   94 1    
    63   31   95 1    
    64   32   33 am   BACKBONE|DICT|INTERRES
    65   32   96 1    
    66   33   34 2    
    67   33   35 1    
    68   35   36 1    
    69   35   37 1    
    70   35   97 1    
    71   36   98 1    
    72   36   99 1    
    73   36  100 1    
    74   37   38 am   BACKBONE|DICT|INTERRES
    75   37  101 1    
    76   38   39 2    
    77   38   40 1    
    78   40   41 1    
    79   40   42 1    
    80   40  102 1    
    81   41  103 1    
    82   41  104 1    
    83   41  105 1    
    84   42   43 am   BACKBONE|DICT|INTERRES
    85   42  106 1    
    86   43   44 2    
    87   43   45 1    
    88   45   46 1    
    89   45   49 1    
    90   45  107 1    
    91   46   47 1    
    92   46  108 1    
    93   46  109 1    
    94   47   48 1    
    95   48  110 1    
    96   48  111 1    
    97   49   50 am   BACKBONE|DICT|INTERRES
    98   49  112 1    
    99   50   51 2    
   100   50   52 1    
   101   52   53 1    
   102   52   54 1    
   103   52  113 1    
   104   53  114 1    
   105   53  115 1    
   106   53  116 1    
   107   54   55 am   BACKBONE|DICT|INTERRES
   108   54  117 1    
   109   55   56 2    
   110   55   57 1    
   111   57   58 1    
   112   57   59 1    
   113   57  118 1    
   114   58  119 1    
   115   58  120 1    
   116   58  121 1    
   117   59   60 am   BACKBONE|DICT|INTERRES
   118   59  122 1    
   119   60   61 2    
   120   60   62 1    
   121   62   63 1    
   122   62   64 1    
   123   62  123 1    
   124   63  124 1    
   125   63  125 1    
   126   63  126 1    
   127   64   65 am   BACKBONE|DICT|INTERRES
   128   64  127 1    
   129   65   66 2    
@<TRIPOS>SUBSTRUCTURE
     1 UNK         1 GROUP             0       ****    0 ROOT    
