@<TRIPOS>MOLECULE
3R135
127   129    1
SMALL
USER_CHARGES


@<TRIPOS>ATOM
      1 CA        -80.9035   23.1644  -69.9411 C.3       0 UNK        -0.1998 
      2 C         -82.0846   24.1280  -69.8497 C.2       0 UNK         0.4909 
      3 O         -82.9931   23.8782  -69.0595 O.2       0 UNK        -0.5240 
      4 N         -82.1392   25.2362  -70.6061 N.am      1 UNK        -0.4739 
      5 CA        -81.2053   25.7153  -71.6403 C.3       1 UNK         0.0864 
      6 C6        -79.7638   26.0267  -71.1406 C.3       11 UNK        -0.0881 
      7 S7        -79.6884   27.0072  -69.6017 S.3       11 UNK        -0.2682 
      8 C8        -80.1569   28.6752  -70.1667 C.3       11 UNK         0.0289 
      9 C9        -79.2145   29.2343  -71.2243 C.ar      11 UNK        -0.0687 
     10 C10       -79.6894   29.5190  -72.5079 C.ar      11 UNK        -0.0823 
     11 C11       -78.8383   30.0624  -73.4740 C.ar      11 UNK        -0.0830 
     12 C12       -77.5056   30.3233  -73.1497 C.ar      11 UNK        -0.1021 
     13 C13       -77.0079   30.0151  -71.8792 C.ar      11 UNK        -0.0753 
     14 C14       -77.8731   29.4831  -70.9173 C.ar      11 UNK        -0.0933 
     15 C15       -75.5423   30.2518  -71.5339 C.3       11 UNK         0.0166 
     16 S16       -74.4154   29.5507  -72.7845 S.3       11 UNK        -0.2615 
     17 C17       -73.9909   31.0186  -73.7949 C.3       11 UNK        -0.0865 
     18 CA        -72.4736   31.1329  -74.0939 C.3       10 UNK         0.0862 
     19 C         -71.6342   31.3340  -72.7937 C.2       10 UNK         0.5551 
     20 N         -70.8277   30.3694  -72.3630 N.am      10 UNK        -0.7319 
     21 O         -71.7160   32.3908  -72.1725 O.2       10 UNK        -0.5018 
     22 N         -72.0356   30.0376  -74.9693 N.am      10 UNK        -0.4509 
     23 C         -70.8391   29.9405  -75.5607 C.2       10 UNK         0.4899 
     24 O         -69.9964   30.8395  -75.5496 O.2       10 UNK        -0.4839 
     25 CA        -70.5329   28.6105  -76.2776 C.3       9 UNK         0.0222 
     26 CB        -69.0205   28.3199  -76.3680 C.3       9 UNK        -0.1966 
     27 N         -71.2420   27.4563  -75.7090 N.am      9 UNK        -0.4218 
     28 C         -71.1944   26.9862  -74.4517 C.2       9 UNK         0.5020 
     29 O         -70.5219   27.4996  -73.5552 O.2       9 UNK        -0.5274 
     30 CA        -72.0585   25.7494  -74.1247 C.3       8 UNK         0.0270 
     31 CB        -73.1910   26.1150  -73.1523 C.3       8 UNK        -0.1976 
     32 N         -72.6531   25.1232  -75.3079 N.am      8 UNK        -0.4313 
     33 C         -71.9978   24.3647  -76.1960 C.2       8 UNK         0.5041 
     34 O         -70.8277   24.0051  -76.0644 O.2       8 UNK        -0.5577 
     35 CA        -72.7679   24.0013  -77.4759 C.3       7 UNK         0.0284 
     36 CB        -73.6649   22.7724  -77.2528 C.3       7 UNK        -0.1958 
     37 N         -73.5713   25.1280  -77.9650 N.am      7 UNK        -0.4454 
     38 C         -73.0607   26.2321  -78.5293 C.2       7 UNK         0.5089 
     39 O         -71.8592   26.3987  -78.7338 O.2       7 UNK        -0.5125 
     40 CA        -74.0420   27.3532  -78.9085 C.3       6 UNK         0.0408 
     41 CB        -74.5221   27.1767  -80.3575 C.3       6 UNK        -0.1791 
     42 N         -75.2022   27.4298  -78.0191 N.am      6 UNK        -0.4762 
     43 C         -75.1847   27.9345  -76.7757 C.2       6 UNK         0.5007 
     44 O         -74.1771   28.3832  -76.2291 O.2       6 UNK        -0.5032 
     45 CA        -76.5272   27.8945  -76.0152 C.3       5 UNK         0.0783 
     46 C46       -77.4503   29.0399  -76.5188 C.3       11 UNK        -0.0857 
     47 S47       -79.1896   28.9188  -75.9595 S.3       11 UNK        -0.2512 
     48 C48       -79.3610   30.3638  -74.8681 C.3       11 UNK         0.0225 
     49 N         -77.1879   26.5876  -76.1065 N.am      5 UNK        -0.4615 
     50 C         -76.6667   25.3795  -75.8562 C.2       4 UNK         0.5053 
     51 O         -75.4887   25.1983  -75.5491 O.2       4 UNK        -0.5105 
     52 CA        -77.6070   24.1641  -75.9747 C.3       4 UNK         0.0263 
     53 CB        -77.4482   23.2246  -74.7666 C.3       4 UNK        -0.1981 
     54 N         -79.0204   24.5374  -76.1120 N.am      4 UNK        -0.4224 
     55 C         -79.6239   24.8753  -77.2629 C.2       3 UNK         0.4895 
     56 O         -79.0336   24.9050  -78.3436 O.2       3 UNK        -0.5091 
     57 CA        -81.1098   25.2985  -77.2001 C.3       3 UNK         0.0250 
     58 CB        -81.8774   24.9607  -78.4964 C.3       3 UNK        -0.1996 
     59 N         -81.8271   24.8033  -76.0168 N.am      3 UNK        -0.4254 
     60 C         -82.0446   23.5245  -75.6719 C.2       2 UNK         0.5004 
     61 O         -81.7504   22.5641  -76.3856 O.2       2 UNK        -0.5226 
     62 CA        -82.6700   23.2773  -74.2799 C.3       2 UNK         0.0269 
     63 CB        -82.2654   21.9030  -73.7039 C.3       2 UNK        -0.1926 
     64 N         -82.4093   24.3230  -73.2730 N.am      2 UNK        -0.4687 
     65 C         -81.2151   24.8035  -72.8866 C.2       1 UNK         0.5165 
     66 O         -80.1576   24.5267  -73.4519 O.2       1 UNK        -0.5079 
     67 H67       -81.1614   22.2104  -69.4817 H         1 UNK         0.0900 
     68 H68       -80.0468   23.5667  -69.4018 H         1 UNK         0.0900 
     69 H69       -80.6090   22.9544  -70.9668 H         1 UNK         0.0900 
     70 H70       -82.9411   25.8363  -70.4718 H         1 UNK         0.2959 
     71 H71       -81.6232   26.6610  -71.9883 H         1 UNK         0.1079 
     72 H72       -79.2048   25.1068  -70.9678 H         1 UNK         0.0837 
     73 H73       -79.2036   26.5536  -71.9154 H         1 UNK         0.0837 
     74 H74       -81.1847   28.6511  -70.5312 H         1 UNK         0.0685 
     75 H75       -80.1574   29.3462  -69.3066 H         1 UNK         0.0685 
     76 H76       -80.7232   29.3223  -72.7571 H         1 UNK         0.1434 
     77 H77       -76.8493   30.7470  -73.8954 H         1 UNK         0.1329 
     78 H78       -77.5047   29.2528  -69.9269 H         1 UNK         0.1335 
     79 H79       -75.3649   31.3187  -71.3971 H         1 UNK         0.0680 
     80 H80       -75.3023   29.7825  -70.5786 H         1 UNK         0.0680 
     81 H81       -74.3396   31.9304  -73.3080 H         1 UNK         0.1032 
     82 H82       -74.5456   30.9597  -74.7326 H         1 UNK         0.1032 
     83 H83       -72.3349   32.0476  -74.6732 H         1 UNK         0.0461 
     84 H84       -70.7680   29.4879  -72.8594 H         1 UNK         0.3453 
     85 H85       -70.2890   30.5122  -71.5242 H         1 UNK         0.3453 
     86 H86       -72.6918   29.2721  -75.0814 H         1 UNK         0.2984 
     87 H87       -70.9105   28.7237  -77.2946 H         1 UNK         0.0554 
     88 H88       -68.4996   29.1091  -76.9115 H         1 UNK         0.0847 
     89 H89       -68.5639   28.2486  -75.3802 H         1 UNK         0.0847 
     90 H90       -68.8283   27.3854  -76.8952 H         1 UNK         0.0847 
     91 H91       -71.8531   26.9736  -76.3526 H         1 UNK         0.3141 
     92 H92       -71.4071   25.0224  -73.6354 H         1 UNK         0.0743 
     93 H93       -73.9194   26.7765  -73.6222 H         1 UNK         0.0784 
     94 H94       -73.7231   25.2261  -72.8130 H         1 UNK         0.0784 
     95 H95       -72.8078   26.6233  -72.2664 H         1 UNK         0.0784 
     96 H96       -73.6448   25.3004  -75.4653 H         1 UNK         0.3213 
     97 H97       -72.0340   23.7485  -78.2446 H         1 UNK         0.0855 
     98 H98       -73.0717   21.9137  -76.9356 H         1 UNK         0.0814 
     99 H99       -74.1819   22.4865  -78.1688 H         1 UNK         0.0814 
    100 H100      -74.4167   22.9470  -76.4831 H         1 UNK         0.0814 
    101 H101      -74.5634   25.0978  -77.7795 H         1 UNK         0.3105 
    102 H102      -73.5008   28.3000  -78.8454 H         1 UNK         0.0547 
    103 H103      -73.6768   27.1417  -81.0463 H         1 UNK         0.0837 
    104 H104      -75.0871   26.2531  -80.4888 H         1 UNK         0.0837 
    105 H105      -75.1564   28.0065  -80.6694 H         1 UNK         0.0837 
    106 H106      -76.0771   27.0715  -78.3761 H         1 UNK         0.3020 
    107 H107      -76.3081   28.0635  -74.9583 H         1 UNK         0.1245 
    108 H108      -77.4878   29.0515  -77.6101 H         1 UNK         0.0781 
    109 H109      -77.0347   30.0070  -76.2315 H         1 UNK         0.0781 
    110 H110      -80.4161   30.6365  -74.8140 H         1 UNK         0.0836 
    111 H111      -78.8510   31.2274  -75.2976 H         1 UNK         0.0836 
    112 H112      -78.1695   26.6289  -76.3362 H         1 UNK         0.3022 
    113 H113      -77.3028   23.6125  -76.8665 H         1 UNK         0.0747 
    114 H114      -78.1311   22.3771  -74.8285 H         1 UNK         0.0793 
    115 H115      -76.4360   22.8215  -74.7130 H         1 UNK         0.0793 
    116 H116      -77.6402   23.7423  -73.8261 H         1 UNK         0.0793 
    117 H117      -79.5571   24.5507  -75.2469 H         1 UNK         0.3047 
    118 H118      -81.0982   26.3854  -77.1054 H         1 UNK         0.0822 
    119 H119      -82.9177   25.2803  -78.4370 H         1 UNK         0.0807 
    120 H120      -81.8659   23.8911  -78.7081 H         1 UNK         0.0807 
    121 H121      -81.4352   25.4648  -79.3567 H         1 UNK         0.0807 
    122 H122      -82.1108   25.5106  -75.3534 H         1 UNK         0.2946 
    123 H123      -83.7494   23.2637  -74.4411 H         1 UNK         0.1144 
    124 H124      -82.5740   21.0906  -74.3631 H         1 UNK         0.0793 
    125 H125      -82.7333   21.7242  -72.7357 H         1 UNK         0.0793 
    126 H126      -81.1852   21.8248  -73.5736 H         1 UNK         0.0793 
    127 H127      -83.2201   24.6285  -72.7515 H         1 UNK         0.2896 
@<TRIPOS>BOND
     1    1    2 1    
     2    1   67 1    
     3    1   68 1    
     4    1   69 1    
     5    2    3 2    
     6    2    4 am   BACKBONE|DICT|INTERRES
     7    4    5 1    
     8    4   70 1    
     9    5    6 1    
    10    5   65 1    
    11    5   71 1    
    12    6    7 1    
    13    6   72 1    
    14    6   73 1    
    15    7    8 1    
    16    8    9 1    
    17    8   74 1    
    18    8   75 1    
    19    9   10 ar   
    20    9   14 ar   
    21   10   11 ar   
    22   10   76 1    
    23   11   12 ar   
    24   11   48 1    
    25   12   13 ar   
    26   12   77 1    
    27   13   14 ar   
    28   13   15 1    
    29   14   78 1    
    30   15   16 1    
    31   15   79 1    
    32   15   80 1    
    33   16   17 1    
    34   17   18 1    
    35   17   81 1    
    36   17   82 1    
    37   18   19 1    
    38   18   22 1    
    39   18   83 1    
    40   19   20 am   BACKBONE|DICT|INTERRES
    41   19   21 2    
    42   20   84 1    
    43   20   85 1    
    44   22   23 am   BACKBONE|DICT|INTERRES
    45   22   86 1    
    46   23   24 2    
    47   23   25 1    
    48   25   26 1    
    49   25   27 1    
    50   25   87 1    
    51   26   88 1    
    52   26   89 1    
    53   26   90 1    
    54   27   28 am   BACKBONE|DICT|INTERRES
    55   27   91 1    
    56   28   29 2    
    57   28   30 1    
    58   30   31 1    
    59   30   32 1    
    60   30   92 1    
    61   31   93 1    
    62   31   94 1    
    63   31   95 1    
    64   32   33 am   BACKBONE|DICT|INTERRES
    65   32   96 1    
    66   33   34 2    
    67   33   35 1    
    68   35   36 1    
    69   35   37 1    
    70   35   97 1    
    71   36   98 1    
    72   36   99 1    
    73   36  100 1    
    74   37   38 am   BACKBONE|DICT|INTERRES
    75   37  101 1    
    76   38   39 2    
    77   38   40 1    
    78   40   41 1    
    79   40   42 1    
    80   40  102 1    
    81   41  103 1    
    82   41  104 1    
    83   41  105 1    
    84   42   43 am   BACKBONE|DICT|INTERRES
    85   42  106 1    
    86   43   44 2    
    87   43   45 1    
    88   45   46 1    
    89   45   49 1    
    90   45  107 1    
    91   46   47 1    
    92   46  108 1    
    93   46  109 1    
    94   47   48 1    
    95   48  110 1    
    96   48  111 1    
    97   49   50 am   BACKBONE|DICT|INTERRES
    98   49  112 1    
    99   50   51 2    
   100   50   52 1    
   101   52   53 1    
   102   52   54 1    
   103   52  113 1    
   104   53  114 1    
   105   53  115 1    
   106   53  116 1    
   107   54   55 am   BACKBONE|DICT|INTERRES
   108   54  117 1    
   109   55   56 2    
   110   55   57 1    
   111   57   58 1    
   112   57   59 1    
   113   57  118 1    
   114   58  119 1    
   115   58  120 1    
   116   58  121 1    
   117   59   60 am   BACKBONE|DICT|INTERRES
   118   59  122 1    
   119   60   61 2    
   120   60   62 1    
   121   62   63 1    
   122   62   64 1    
   123   62  123 1    
   124   63  124 1    
   125   63  125 1    
   126   63  126 1    
   127   64   65 am   BACKBONE|DICT|INTERRES
   128   64  127 1    
   129   65   66 2    
@<TRIPOS>SUBSTRUCTURE
     1 UNK         1 GROUP             0       ****    0 ROOT    
