@<TRIPOS>MOLECULE
3R135
127   129    1
SMALL
USER_CHARGES


@<TRIPOS>ATOM
      1 CA        -80.9007   28.2757  -77.0338 C.3       0 UNK        -0.1998 
      2 C         -80.4955   27.4823  -75.8027 C.2       0 UNK         0.4909 
      3 O         -79.4362   26.8532  -75.7985 O.2       0 UNK        -0.5240 
      4 N         -81.3239   27.5244  -74.7500 N.am      1 UNK        -0.4739 
      5 CA        -81.1326   26.8196  -73.4732 C.3       1 UNK         0.0864 
      6 C6        -82.2409   27.2245  -72.4585 C.3       11 UNK        -0.0881 
      7 S7        -81.8558   27.3469  -70.6694 S.3       11 UNK        -0.2682 
      8 C8        -80.1172   26.8506  -70.4126 C.3       11 UNK         0.0289 
      9 C9        -79.0600   27.9404  -70.6187 C.ar      11 UNK        -0.0687 
     10 C10       -79.2618   29.0651  -71.4311 C.ar      11 UNK        -0.0823 
     11 C11       -78.2428   30.0063  -71.6149 C.ar      11 UNK        -0.0830 
     12 C12       -77.0203   29.8339  -70.9604 C.ar      11 UNK        -0.1021 
     13 C13       -76.7975   28.7139  -70.1566 C.ar      11 UNK        -0.0753 
     14 C14       -77.8219   27.7793  -69.9877 C.ar      11 UNK        -0.0933 
     15 C15       -75.4572   28.5065  -69.4655 C.3       11 UNK         0.0166 
     16 S16       -74.1962   27.8605  -70.6114 S.3       11 UNK        -0.2615 
     17 C17       -73.3582   29.4068  -71.0983 C.3       11 UNK        -0.0865 
     18 CA        -72.1231   29.2361  -72.0209 C.3       10 UNK         0.0862 
     19 C         -70.9933   28.3490  -71.4156 C.2       10 UNK         0.5551 
     20 N         -70.4192   27.3997  -72.1462 N.am      10 UNK        -0.7319 
     21 O         -70.6105   28.5441  -70.2643 O.2       10 UNK        -0.5018 
     22 N         -72.5054   28.8969  -73.4021 N.am      10 UNK        -0.4509 
     23 C         -71.8415   29.3355  -74.4804 C.2       10 UNK         0.4899 
     24 O         -70.8832   30.1090  -74.4236 O.2       10 UNK        -0.4839 
     25 CA        -72.3239   28.8221  -75.8499 C.3       9 UNK         0.0222 
     26 CB        -71.3878   29.2277  -77.0075 C.3       9 UNK        -0.1966 
     27 N         -72.5650   27.3767  -75.8901 N.am      9 UNK        -0.4218 
     28 C         -71.7230   26.3891  -75.5493 C.2       9 UNK         0.5020 
     29 O         -70.6091   26.5674  -75.0546 O.2       9 UNK        -0.5274 
     30 CA        -72.2022   24.9483  -75.8044 C.3       8 UNK         0.0270 
     31 CB        -72.6527   24.2845  -74.4944 C.3       8 UNK        -0.1976 
     32 N         -73.2684   24.8654  -76.8137 N.am      8 UNK        -0.4313 
     33 C         -73.0385   24.9915  -78.1302 C.2       8 UNK         0.5041 
     34 O         -71.9231   25.1936  -78.6122 O.2       8 UNK        -0.5577 
     35 CA        -74.2408   24.8788  -79.0720 C.3       7 UNK         0.0284 
     36 CB        -74.7071   23.4173  -79.1877 C.3       7 UNK        -0.1958 
     37 N         -75.3546   25.7205  -78.6288 N.am      7 UNK        -0.4454 
     38 C         -75.7582   26.8270  -79.2666 C.2       7 UNK         0.5089 
     39 O         -75.1743   27.3156  -80.2348 O.2       7 UNK        -0.5125 
     40 CA        -77.0612   27.4804  -78.7794 C.3       6 UNK         0.0408 
     41 CB        -78.2753   26.6589  -79.2426 C.3       6 UNK        -0.1791 
     42 N         -77.1243   27.6877  -77.3316 N.am      6 UNK        -0.4762 
     43 C         -76.4254   28.6203  -76.6663 C.2       6 UNK         0.5007 
     44 O         -75.5962   29.3565  -77.1992 O.2       6 UNK        -0.5032 
     45 CA        -76.7080   28.7657  -75.1573 C.3       5 UNK         0.0783 
     46 C46       -77.8858   29.7471  -74.8823 C.3       11 UNK        -0.0857 
     47 S47       -77.3487   31.2268  -73.9615 S.3       11 UNK        -0.2512 
     48 C48       -78.4622   31.2158  -72.5149 C.3       11 UNK         0.0225 
     49 N         -76.9427   27.4471  -74.5658 N.am      5 UNK        -0.4615 
     50 C         -75.9852   26.6956  -74.0137 C.2       4 UNK         0.5053 
     51 O         -74.8171   27.0640  -73.8938 O.2       4 UNK        -0.5105 
     52 CA        -76.3822   25.2837  -73.5495 C.3       4 UNK         0.0263 
     53 CB        -76.8733   25.2997  -72.0998 C.3       4 UNK        -0.1981 
     54 N         -77.3944   24.6399  -74.3879 N.am      4 UNK        -0.4224 
     55 C         -77.1613   24.2018  -75.6346 C.2       3 UNK         0.4895 
     56 O         -76.1059   24.4219  -76.2323 O.2       3 UNK        -0.5091 
     57 CA        -78.2459   23.3669  -76.3396 C.3       3 UNK         0.0250 
     58 CB        -77.7635   21.9233  -76.5684 C.3       3 UNK        -0.1996 
     59 N         -79.5114   23.3493  -75.6072 N.am      3 UNK        -0.4254 
     60 C         -80.7315   23.2644  -76.1443 C.2       2 UNK         0.5004 
     61 O         -80.9492   23.0993  -77.3449 O.2       2 UNK        -0.5226 
     62 CA        -81.9149   23.4348  -75.1731 C.3       2 UNK         0.0269 
     63 CB        -81.9879   22.2954  -74.1354 C.3       2 UNK        -0.1926 
     64 N         -81.9292   24.7641  -74.5434 N.am      2 UNK        -0.4687 
     65 C         -81.0400   25.2928  -73.6860 C.2       1 UNK         0.5165 
     66 O         -80.1116   24.6586  -73.1795 O.2       1 UNK        -0.5079 
     67 H67       -80.0555   28.8542  -77.4052 H         1 UNK         0.0900 
     68 H68       -81.7138   28.9691  -76.8202 H         1 UNK         0.0900 
     69 H69       -81.2290   27.5988  -77.8215 H         1 UNK         0.0900 
     70 H70       -82.1729   28.0668  -74.8257 H         1 UNK         0.2959 
     71 H71       -80.1588   27.1402  -73.1078 H         1 UNK         0.1079 
     72 H72       -83.1160   26.5803  -72.5660 H         1 UNK         0.0837 
     73 H73       -82.6106   28.2194  -72.7129 H         1 UNK         0.0837 
     74 H74       -80.0521   26.5107  -69.3778 H         1 UNK         0.0685 
     75 H75       -79.8813   25.9760  -71.0134 H         1 UNK         0.0685 
     76 H76       -80.2076   29.2126  -71.9313 H         1 UNK         0.1434 
     77 H77       -76.2387   30.5679  -71.0929 H         1 UNK         0.1329 
     78 H78       -77.6484   26.9090  -69.3693 H         1 UNK         0.1335 
     79 H79       -75.1219   29.4412  -69.0141 H         1 UNK         0.0680 
     80 H80       -75.5657   27.7993  -68.6418 H         1 UNK         0.0680 
     81 H81       -73.0572   29.9292  -70.1884 H         1 UNK         0.1032 
     82 H82       -74.0815   30.0597  -71.5866 H         1 UNK         0.1032 
     83 H83       -71.6746   30.2308  -72.0547 H         1 UNK         0.0461 
     84 H84       -69.6848   26.8445  -71.7377 H         1 UNK         0.3453 
     85 H85       -70.6782   27.2541  -73.1151 H         1 UNK         0.3453 
     86 H86       -73.2675   28.2319  -73.5134 H         1 UNK         0.2984 
     87 H87       -73.2866   29.3012  -76.0218 H         1 UNK         0.0554 
     88 H88       -71.7803   28.8951  -77.9686 H         1 UNK         0.0847 
     89 H89       -70.3911   28.8016  -76.8870 H         1 UNK         0.0847 
     90 H90       -71.2764   30.3113  -77.0625 H         1 UNK         0.0847 
     91 H91       -73.4777   27.0983  -76.2195 H         1 UNK         0.3141 
     92 H92       -71.3457   24.3826  -76.1781 H         1 UNK         0.0743 
     93 H93       -73.3317   24.9221  -73.9334 H         1 UNK         0.0784 
     94 H94       -73.1429   23.3266  -74.6693 H         1 UNK         0.0784 
     95 H95       -71.7945   24.0983  -73.8476 H         1 UNK         0.0784 
     96 H96       -74.2159   24.6802  -76.4917 H         1 UNK         0.3213 
     97 H97       -73.9048   25.1882  -80.0642 H         1 UNK         0.0855 
     98 H98       -75.0108   23.0065  -78.2254 H         1 UNK         0.0814 
     99 H99       -73.9058   22.7841  -79.5709 H         1 UNK         0.0814 
    100 H100      -75.5497   23.3235  -79.8728 H         1 UNK         0.0814 
    101 H101      -75.8584   25.4022  -77.8052 H         1 UNK         0.3105 
    102 H102      -77.1297   28.4599  -79.2580 H         1 UNK         0.0547 
    103 H103      -78.2146   26.4366  -80.3090 H         1 UNK         0.0837 
    104 H104      -78.3501   25.7083  -78.7161 H         1 UNK         0.0837 
    105 H105      -79.2045   27.2031  -79.0866 H         1 UNK         0.0837 
    106 H106      -77.8256   27.1598  -76.8201 H         1 UNK         0.3020 
    107 H107      -75.7966   29.1836  -74.7228 H         1 UNK         0.1245 
    108 H108      -78.6778   29.2542  -74.3184 H         1 UNK         0.0781 
    109 H109      -78.3677   30.0913  -75.7997 H         1 UNK         0.0781 
    110 H110      -79.4957   31.2655  -72.8613 H         1 UNK         0.0836 
    111 H111      -78.2923   32.1235  -71.9343 H         1 UNK         0.0836 
    112 H112      -77.8680   27.0527  -74.7032 H         1 UNK         0.3022 
    113 H113      -75.4901   24.6593  -73.5826 H         1 UNK         0.0747 
    114 H114      -77.0584   24.2920  -71.7280 H         1 UNK         0.0793 
    115 H115      -76.1381   25.7608  -71.4402 H         1 UNK         0.0793 
    116 H116      -77.7982   25.8647  -72.0140 H         1 UNK         0.0793 
    117 H117      -78.3024   24.5108  -73.9582 H         1 UNK         0.3047 
    118 H118      -78.4102   23.8355  -77.3110 H         1 UNK         0.0822 
    119 H119      -78.4876   21.3504  -77.1478 H         1 UNK         0.0807 
    120 H120      -77.6008   21.4011  -75.6249 H         1 UNK         0.0807 
    121 H121      -76.8234   21.9022  -77.1198 H         1 UNK         0.0807 
    122 H122      -79.4768   23.5220  -74.6092 H         1 UNK         0.2946 
    123 H123      -82.8222   23.3783  -75.7775 H         1 UNK         0.1144 
    124 H124      -82.0587   21.3264  -74.6312 H         1 UNK         0.0793 
    125 H125      -82.8677   22.3979  -73.5003 H         1 UNK         0.0793 
    126 H126      -81.1125   22.2603  -73.4869 H         1 UNK         0.0793 
    127 H127      -82.6119   25.4018  -74.9295 H         1 UNK         0.2896 
@<TRIPOS>BOND
     1    1    2 1    
     2    1   67 1    
     3    1   68 1    
     4    1   69 1    
     5    2    3 2    
     6    2    4 am   BACKBONE|DICT|INTERRES
     7    4    5 1    
     8    4   70 1    
     9    5    6 1    
    10    5   65 1    
    11    5   71 1    
    12    6    7 1    
    13    6   72 1    
    14    6   73 1    
    15    7    8 1    
    16    8    9 1    
    17    8   74 1    
    18    8   75 1    
    19    9   10 ar   
    20    9   14 ar   
    21   10   11 ar   
    22   10   76 1    
    23   11   12 ar   
    24   11   48 1    
    25   12   13 ar   
    26   12   77 1    
    27   13   14 ar   
    28   13   15 1    
    29   14   78 1    
    30   15   16 1    
    31   15   79 1    
    32   15   80 1    
    33   16   17 1    
    34   17   18 1    
    35   17   81 1    
    36   17   82 1    
    37   18   19 1    
    38   18   22 1    
    39   18   83 1    
    40   19   20 am   BACKBONE|DICT|INTERRES
    41   19   21 2    
    42   20   84 1    
    43   20   85 1    
    44   22   23 am   BACKBONE|DICT|INTERRES
    45   22   86 1    
    46   23   24 2    
    47   23   25 1    
    48   25   26 1    
    49   25   27 1    
    50   25   87 1    
    51   26   88 1    
    52   26   89 1    
    53   26   90 1    
    54   27   28 am   BACKBONE|DICT|INTERRES
    55   27   91 1    
    56   28   29 2    
    57   28   30 1    
    58   30   31 1    
    59   30   32 1    
    60   30   92 1    
    61   31   93 1    
    62   31   94 1    
    63   31   95 1    
    64   32   33 am   BACKBONE|DICT|INTERRES
    65   32   96 1    
    66   33   34 2    
    67   33   35 1    
    68   35   36 1    
    69   35   37 1    
    70   35   97 1    
    71   36   98 1    
    72   36   99 1    
    73   36  100 1    
    74   37   38 am   BACKBONE|DICT|INTERRES
    75   37  101 1    
    76   38   39 2    
    77   38   40 1    
    78   40   41 1    
    79   40   42 1    
    80   40  102 1    
    81   41  103 1    
    82   41  104 1    
    83   41  105 1    
    84   42   43 am   BACKBONE|DICT|INTERRES
    85   42  106 1    
    86   43   44 2    
    87   43   45 1    
    88   45   46 1    
    89   45   49 1    
    90   45  107 1    
    91   46   47 1    
    92   46  108 1    
    93   46  109 1    
    94   47   48 1    
    95   48  110 1    
    96   48  111 1    
    97   49   50 am   BACKBONE|DICT|INTERRES
    98   49  112 1    
    99   50   51 2    
   100   50   52 1    
   101   52   53 1    
   102   52   54 1    
   103   52  113 1    
   104   53  114 1    
   105   53  115 1    
   106   53  116 1    
   107   54   55 am   BACKBONE|DICT|INTERRES
   108   54  117 1    
   109   55   56 2    
   110   55   57 1    
   111   57   58 1    
   112   57   59 1    
   113   57  118 1    
   114   58  119 1    
   115   58  120 1    
   116   58  121 1    
   117   59   60 am   BACKBONE|DICT|INTERRES
   118   59  122 1    
   119   60   61 2    
   120   60   62 1    
   121   62   63 1    
   122   62   64 1    
   123   62  123 1    
   124   63  124 1    
   125   63  125 1    
   126   63  126 1    
   127   64   65 am   BACKBONE|DICT|INTERRES
   128   64  127 1    
   129   65   66 2    
@<TRIPOS>SUBSTRUCTURE
     1 UNK         1 GROUP             0       ****    0 ROOT    
