@<TRIPOS>MOLECULE
3R135
127   129    1
SMALL
USER_CHARGES


@<TRIPOS>ATOM
      1 CA        -84.9436   24.8434  -71.0474 C.3       0 UNK        -0.1998 
      2 C         -83.6579   25.0339  -71.8375 C.2       0 UNK         0.4909 
      3 O         -83.1033   24.0558  -72.3410 O.2       0 UNK        -0.5240 
      4 N         -83.1905   26.2857  -71.9537 N.am      1 UNK        -0.4739 
      5 CA        -81.9766   26.7448  -72.6505 C.3       1 UNK         0.0864 
      6 C6        -80.6621   26.1114  -72.1164 C.3       11 UNK        -0.0881 
      7 S7        -80.2984   26.6686  -70.4158 S.3       11 UNK        -0.2682 
      8 C8        -78.4694   26.6995  -70.3988 C.3       11 UNK         0.0289 
      9 C9        -77.7926   27.8630  -71.1318 C.ar      11 UNK        -0.0687 
     10 C10       -78.4761   28.7221  -72.0024 C.ar      11 UNK        -0.0823 
     11 C11       -77.7938   29.7128  -72.7118 C.ar      11 UNK        -0.0830 
     12 C12       -76.4223   29.8820  -72.5150 C.ar      11 UNK        -0.1021 
     13 C13       -75.7261   29.0553  -71.6296 C.ar      11 UNK        -0.0753 
     14 C14       -76.4167   28.0457  -70.9506 C.ar      11 UNK        -0.0933 
     15 C15       -74.2187   29.1934  -71.4640 C.3       11 UNK         0.0166 
     16 S16       -73.6719   30.9089  -71.1848 S.3       11 UNK        -0.2615 
     17 C17       -71.8608   30.6776  -71.1966 C.3       11 UNK        -0.0865 
     18 CA        -71.1929   31.0213  -72.5563 C.3       10 UNK         0.0862 
     19 C         -69.6453   30.8887  -72.4329 C.2       10 UNK         0.5551 
     20 N         -69.0168   29.8663  -73.0038 N.am      10 UNK        -0.7319 
     21 O         -69.0079   31.7298  -71.8041 O.2       10 UNK        -0.5018 
     22 N         -71.7739   30.2497  -73.6671 N.am      10 UNK        -0.4509 
     23 C         -71.5536   30.4752  -74.9685 C.2       10 UNK         0.4899 
     24 O         -70.9593   31.4676  -75.3927 O.2       10 UNK        -0.4839 
     25 CA        -72.0760   29.4172  -75.9672 C.3       9 UNK         0.0222 
     26 CB        -71.1296   29.2443  -77.1732 C.3       9 UNK        -0.1966 
     27 N         -72.3906   28.1018  -75.3849 N.am      9 UNK        -0.4218 
     28 C         -71.5666   27.2924  -74.6981 C.2       9 UNK         0.5020 
     29 O         -70.4080   27.5861  -74.3978 O.2       9 UNK        -0.5274 
     30 CA        -72.1346   25.9405  -74.2387 C.3       8 UNK         0.0270 
     31 CB        -72.9547   26.0959  -72.9488 C.3       8 UNK        -0.1976 
     32 N         -72.9456   25.2828  -75.2656 N.am      8 UNK        -0.4313 
     33 C         -72.4258   24.6488  -76.3270 C.2       8 UNK         0.5041 
     34 O         -71.2170   24.5612  -76.5485 O.2       8 UNK        -0.5577 
     35 CA        -73.4118   23.9841  -77.3015 C.3       7 UNK         0.0284 
     36 CB        -73.9689   22.6800  -76.7090 C.3       7 UNK        -0.1958 
     37 N         -74.5137   24.8654  -77.6877 N.am      7 UNK        -0.4454 
     38 C         -74.3748   25.9685  -78.4367 C.2       7 UNK         0.5089 
     39 O         -73.3050   26.3494  -78.9124 O.2       7 UNK        -0.5125 
     40 CA        -75.6463   26.7943  -78.6955 C.3       6 UNK         0.0408 
     41 CB        -76.4247   26.2331  -79.8960 C.3       6 UNK        -0.1791 
     42 N         -76.5289   26.8652  -77.5299 N.am      6 UNK        -0.4762 
     43 C         -76.2173   27.4702  -76.3742 C.2       6 UNK         0.5007 
     44 O         -75.1423   28.0294  -76.1563 O.2       6 UNK        -0.5032 
     45 CA        -77.2668   27.3744  -75.2522 C.3       5 UNK         0.0783 
     46 C46       -78.4743   28.3189  -75.4969 C.3       11 UNK        -0.0857 
     47 S47       -78.0441   30.0952  -75.4373 S.3       11 UNK        -0.2512 
     48 C48       -78.5267   30.5573  -73.7416 C.3       11 UNK         0.0225 
     49 N         -77.6909   25.9841  -75.0590 N.am      5 UNK        -0.4615 
     50 C         -76.8801   24.9969  -74.6437 C.2       4 UNK         0.5053 
     51 O         -75.7015   25.1662  -74.3355 O.2       4 UNK        -0.5105 
     52 CA        -77.4505   23.5673  -74.6090 C.3       4 UNK         0.0263 
     53 CB        -78.0414   23.2582  -73.2256 C.3       4 UNK        -0.1981 
     54 N         -78.4564   23.3120  -75.6411 N.am      4 UNK        -0.4224 
     55 C         -78.2458   23.4084  -76.9622 C.2       3 UNK         0.4895 
     56 O         -77.1460   23.6416  -77.4639 O.2       3 UNK        -0.5091 
     57 CA        -79.4780   23.2824  -77.8776 C.3       3 UNK         0.0250 
     58 CB        -79.5952   21.8499  -78.4212 C.3       3 UNK        -0.1996 
     59 N         -80.7509   23.6728  -77.2522 N.am      3 UNK        -0.4254 
     60 C         -81.0158   24.8684  -76.7022 C.2       2 UNK         0.5004 
     61 O         -80.1785   25.7686  -76.6265 O.2       2 UNK        -0.5226 
     62 CA        -82.4249   25.0949  -76.1185 C.3       2 UNK         0.0269 
     63 CB        -83.3820   23.8969  -76.2899 C.3       2 UNK        -0.1926 
     64 N         -82.3421   25.4265  -74.6955 N.am      2 UNK        -0.4687 
     65 C         -82.0875   26.6374  -74.1856 C.2       1 UNK         0.5165 
     66 O         -81.9654   27.6555  -74.8671 O.2       1 UNK        -0.5079 
     67 H67       -85.7109   24.4002  -71.6817 H         1 UNK         0.0900 
     68 H68       -84.7692   24.1745  -70.2051 H         1 UNK         0.0900 
     69 H69       -85.3278   25.7859  -70.6578 H         1 UNK         0.0900 
     70 H70       -83.7229   27.0301  -71.5244 H         1 UNK         0.2959 
     71 H71       -81.9224   27.8158  -72.4466 H         1 UNK         0.1079 
     72 H72       -80.7201   25.0233  -72.1173 H         1 UNK         0.0837 
     73 H73       -79.8188   26.3622  -72.7623 H         1 UNK         0.0837 
     74 H74       -78.1544   26.7192  -69.3545 H         1 UNK         0.0685 
     75 H75       -78.0996   25.7599  -70.8122 H         1 UNK         0.0685 
     76 H76       -79.5362   28.6108  -72.1670 H         1 UNK         0.1434 
     77 H77       -75.8913   30.6382  -73.0772 H         1 UNK         0.1329 
     78 H78       -75.8761   27.3822  -70.2892 H         1 UNK         0.1335 
     79 H79       -73.8619   28.5709  -70.6418 H         1 UNK         0.0680 
     80 H80       -73.7481   28.8208  -72.3712 H         1 UNK         0.0680 
     81 H81       -71.4525   31.3158  -70.4102 H         1 UNK         0.1032 
     82 H82       -71.6205   29.6552  -70.8982 H         1 UNK         0.1032 
     83 H83       -71.3946   32.0738  -72.7645 H         1 UNK         0.0461 
     84 H84       -69.5330   29.1567  -73.5144 H         1 UNK         0.3453 
     85 H85       -68.0159   29.7926  -72.9179 H         1 UNK         0.3453 
     86 H86       -72.2678   29.4098  -73.4143 H         1 UNK         0.2984 
     87 H87       -73.0212   29.8087  -76.3453 H         1 UNK         0.0554 
     88 H88       -70.9964   30.1841  -77.7102 H         1 UNK         0.0847 
     89 H89       -71.5263   28.5206  -77.8858 H         1 UNK         0.0847 
     90 H90       -70.1414   28.9024  -76.8635 H         1 UNK         0.0847 
     91 H91       -73.3444   27.7921  -75.5610 H         1 UNK         0.3141 
     92 H92       -71.2845   25.2942  -74.0089 H         1 UNK         0.0743 
     93 H93       -73.8709   26.6609  -73.1196 H         1 UNK         0.0784 
     94 H94       -73.2408   25.1238  -72.5468 H         1 UNK         0.0784 
     95 H95       -72.3822   26.6100  -72.1755 H         1 UNK         0.0784 
     96 H96       -73.9536   25.2820  -75.1230 H         1 UNK         0.3213 
     97 H97       -72.8599   23.7302  -78.2093 H         1 UNK         0.0855 
     98 H98       -74.5169   22.8589  -75.7846 H         1 UNK         0.0814 
     99 H99       -73.1626   21.9824  -76.4788 H         1 UNK         0.0814 
    100 H100      -74.6413   22.1806  -77.4069 H         1 UNK         0.0814 
    101 H101      -75.4507   24.5850  -77.4098 H         1 UNK         0.3105 
    102 H102      -75.3356   27.8128  -78.9382 H         1 UNK         0.0547 
    103 H103      -75.7940   26.1960  -80.7852 H         1 UNK         0.0837 
    104 H104      -76.7833   25.2200  -79.7098 H         1 UNK         0.0837 
    105 H105      -77.2863   26.8556  -80.1375 H         1 UNK         0.0837 
    106 H106      -77.4170   26.3881  -77.5981 H         1 UNK         0.3020 
    107 H107      -76.7710   27.6809  -74.3291 H         1 UNK         0.1245 
    108 H108      -79.2542   28.1250  -74.7603 H         1 UNK         0.0781 
    109 H109      -78.9349   28.1160  -76.4651 H         1 UNK         0.0781 
    110 H110      -79.6083   30.4581  -73.6354 H         1 UNK         0.0836 
    111 H111      -78.2968   31.6112  -73.5786 H         1 UNK         0.0836 
    112 H112      -78.6257   25.7572  -75.3841 H         1 UNK         0.3022 
    113 H113      -76.6225   22.8786  -74.7827 H         1 UNK         0.0747 
    114 H114      -78.3480   22.2150  -73.1485 H         1 UNK         0.0793 
    115 H115      -77.3077   23.4379  -72.4382 H         1 UNK         0.0793 
    116 H116      -78.9088   23.8801  -73.0108 H         1 UNK         0.0793 
    117 H117      -79.3937   23.1116  -75.3255 H         1 UNK         0.3047 
    118 H118      -79.3141   23.9554  -78.7218 H         1 UNK         0.0822 
    119 H119      -80.3931   21.7684  -79.1596 H         1 UNK         0.0807 
    120 H120      -79.7965   21.1308  -77.6262 H         1 UNK         0.0807 
    121 H121      -78.6707   21.5421  -78.9125 H         1 UNK         0.0807 
    122 H122      -81.4893   22.9840  -77.2685 H         1 UNK         0.2946 
    123 H123      -82.8507   25.9445  -76.6572 H         1 UNK         0.1144 
    124 H124      -84.3725   24.1345  -75.9007 H         1 UNK         0.0793 
    125 H125      -83.0302   23.0096  -75.7617 H         1 UNK         0.0793 
    126 H126      -83.5132   23.6374  -77.3414 H         1 UNK         0.0793 
    127 H127      -82.4809   24.6696  -74.0305 H         1 UNK         0.2896 
@<TRIPOS>BOND
     1    1    2 1    
     2    1   67 1    
     3    1   68 1    
     4    1   69 1    
     5    2    3 2    
     6    2    4 am   BACKBONE|DICT|INTERRES
     7    4    5 1    
     8    4   70 1    
     9    5    6 1    
    10    5   65 1    
    11    5   71 1    
    12    6    7 1    
    13    6   72 1    
    14    6   73 1    
    15    7    8 1    
    16    8    9 1    
    17    8   74 1    
    18    8   75 1    
    19    9   10 ar   
    20    9   14 ar   
    21   10   11 ar   
    22   10   76 1    
    23   11   12 ar   
    24   11   48 1    
    25   12   13 ar   
    26   12   77 1    
    27   13   14 ar   
    28   13   15 1    
    29   14   78 1    
    30   15   16 1    
    31   15   79 1    
    32   15   80 1    
    33   16   17 1    
    34   17   18 1    
    35   17   81 1    
    36   17   82 1    
    37   18   19 1    
    38   18   22 1    
    39   18   83 1    
    40   19   20 am   BACKBONE|DICT|INTERRES
    41   19   21 2    
    42   20   84 1    
    43   20   85 1    
    44   22   23 am   BACKBONE|DICT|INTERRES
    45   22   86 1    
    46   23   24 2    
    47   23   25 1    
    48   25   26 1    
    49   25   27 1    
    50   25   87 1    
    51   26   88 1    
    52   26   89 1    
    53   26   90 1    
    54   27   28 am   BACKBONE|DICT|INTERRES
    55   27   91 1    
    56   28   29 2    
    57   28   30 1    
    58   30   31 1    
    59   30   32 1    
    60   30   92 1    
    61   31   93 1    
    62   31   94 1    
    63   31   95 1    
    64   32   33 am   BACKBONE|DICT|INTERRES
    65   32   96 1    
    66   33   34 2    
    67   33   35 1    
    68   35   36 1    
    69   35   37 1    
    70   35   97 1    
    71   36   98 1    
    72   36   99 1    
    73   36  100 1    
    74   37   38 am   BACKBONE|DICT|INTERRES
    75   37  101 1    
    76   38   39 2    
    77   38   40 1    
    78   40   41 1    
    79   40   42 1    
    80   40  102 1    
    81   41  103 1    
    82   41  104 1    
    83   41  105 1    
    84   42   43 am   BACKBONE|DICT|INTERRES
    85   42  106 1    
    86   43   44 2    
    87   43   45 1    
    88   45   46 1    
    89   45   49 1    
    90   45  107 1    
    91   46   47 1    
    92   46  108 1    
    93   46  109 1    
    94   47   48 1    
    95   48  110 1    
    96   48  111 1    
    97   49   50 am   BACKBONE|DICT|INTERRES
    98   49  112 1    
    99   50   51 2    
   100   50   52 1    
   101   52   53 1    
   102   52   54 1    
   103   52  113 1    
   104   53  114 1    
   105   53  115 1    
   106   53  116 1    
   107   54   55 am   BACKBONE|DICT|INTERRES
   108   54  117 1    
   109   55   56 2    
   110   55   57 1    
   111   57   58 1    
   112   57   59 1    
   113   57  118 1    
   114   58  119 1    
   115   58  120 1    
   116   58  121 1    
   117   59   60 am   BACKBONE|DICT|INTERRES
   118   59  122 1    
   119   60   61 2    
   120   60   62 1    
   121   62   63 1    
   122   62   64 1    
   123   62  123 1    
   124   63  124 1    
   125   63  125 1    
   126   63  126 1    
   127   64   65 am   BACKBONE|DICT|INTERRES
   128   64  127 1    
   129   65   66 2    
@<TRIPOS>SUBSTRUCTURE
     1 UNK         1 GROUP             0       ****    0 ROOT    
