@<TRIPOS>MOLECULE
3R135
127   129    1
SMALL
USER_CHARGES


@<TRIPOS>ATOM
      1 CA        -80.4506   22.3854  -71.6182 C.3       0 UNK        -0.1998 
      2 C         -81.0886   23.5316  -72.3872 C.2       0 UNK         0.4909 
      3 O         -81.6385   23.3111  -73.4670 O.2       0 UNK        -0.5240 
      4 N         -81.0118   24.7541  -71.8429 N.am      1 UNK        -0.4739 
      5 CA        -81.5079   25.9997  -72.4426 C.3       1 UNK         0.0864 
      6 C6        -81.3398   27.2515  -71.5185 C.3       11 UNK        -0.0881 
      7 S7        -80.1885   27.1157  -70.0949 S.3       11 UNK        -0.2682 
      8 C8        -78.5386   27.0832  -70.8648 C.3       11 UNK         0.0289 
      9 C9        -78.0249   28.4580  -71.2641 C.ar      11 UNK        -0.0687 
     10 C10       -78.3658   29.0030  -72.5023 C.ar      11 UNK        -0.0823 
     11 C11       -77.8413   30.2297  -72.9161 C.ar      11 UNK        -0.0830 
     12 C12       -76.9648   30.9201  -72.0709 C.ar      11 UNK        -0.1021 
     13 C13       -76.6326   30.3961  -70.8163 C.ar      11 UNK        -0.0753 
     14 C14       -77.1663   29.1654  -70.4197 C.ar      11 UNK        -0.0933 
     15 C15       -75.7273   31.1630  -69.8644 C.3       11 UNK         0.0166 
     16 S16       -74.1019   30.3589  -69.6851 S.3       11 UNK        -0.2615 
     17 C17       -72.9634   31.5242  -70.5174 C.3       11 UNK        -0.0865 
     18 CA        -72.0797   30.8754  -71.6144 C.3       10 UNK         0.0862 
     19 C         -71.0724   29.8301  -71.0425 C.2       10 UNK         0.5551 
     20 N         -71.0735   28.5781  -71.4881 N.am      10 UNK        -0.7319 
     21 O         -70.2608   30.1710  -70.1852 O.2       10 UNK        -0.5018 
     22 N         -72.8846   30.4087  -72.7522 N.am      10 UNK        -0.4509 
     23 C         -72.4016   30.2331  -73.9866 C.2       10 UNK         0.4899 
     24 O         -71.2554   30.5296  -74.3318 O.2       10 UNK        -0.4839 
     25 CA        -73.3593   29.6130  -75.0150 C.3       9 UNK         0.0222 
     26 CB        -73.6828   30.6375  -76.1158 C.3       9 UNK        -0.1966 
     27 N         -72.7901   28.4043  -75.6210 N.am      9 UNK        -0.4218 
     28 C         -72.3943   27.3151  -74.9483 C.2       9 UNK         0.5020 
     29 O         -72.5659   27.1594  -73.7364 O.2       9 UNK        -0.5274 
     30 CA        -71.6793   26.2300  -75.7657 C.3       8 UNK         0.0270 
     31 CB        -70.7135   25.3961  -74.8961 C.3       8 UNK        -0.1976 
     32 N         -72.6618   25.3594  -76.4093 N.am      8 UNK        -0.4313 
     33 C         -72.4058   24.5574  -77.4517 C.2       8 UNK         0.5041 
     34 O         -71.3160   24.5077  -78.0247 O.2       8 UNK        -0.5577 
     35 CA        -73.5473   23.6506  -77.9421 C.3       7 UNK         0.0284 
     36 CB        -73.8449   22.5285  -76.9328 C.3       7 UNK        -0.1958 
     37 N         -74.7665   24.4062  -78.2256 N.am      7 UNK        -0.4454 
     38 C         -74.9568   25.1503  -79.3242 C.2       7 UNK         0.5089 
     39 O         -74.1497   25.2243  -80.2515 O.2       7 UNK        -0.5125 
     40 CA        -76.2665   25.9572  -79.4066 C.3       6 UNK         0.0408 
     41 CB        -77.3622   25.1407  -80.1092 C.3       6 UNK        -0.1791 
     42 N         -76.7548   26.4060  -78.1006 N.am      6 UNK        -0.4762 
     43 C         -76.1061   27.2663  -77.3016 C.2       6 UNK         0.5007 
     44 O         -75.0521   27.8183  -77.6141 O.2       6 UNK        -0.5032 
     45 CA        -76.7177   27.5070  -75.9052 C.3       5 UNK         0.0783 
     46 C46       -77.8423   28.5750  -75.9651 C.3       11 UNK        -0.0857 
     47 S47       -77.2112   30.2554  -75.6340 S.3       11 UNK        -0.2512 
     48 C48       -78.2580   30.8238  -74.2554 C.3       11 UNK         0.0225 
     49 N         -77.1616   26.2543  -75.2802 N.am      5 UNK        -0.4615 
     50 C         -76.3605   25.2196  -74.9873 C.2       4 UNK         0.5053 
     51 O         -75.1417   25.2394  -75.1443 O.2       4 UNK        -0.5105 
     52 CA        -77.0237   23.9184  -74.5078 C.3       4 UNK         0.0263 
     53 CB        -77.1799   23.8821  -72.9813 C.3       4 UNK        -0.1981 
     54 N         -78.3190   23.6985  -75.1507 N.am      4 UNK        -0.4224 
     55 C         -78.4620   23.2794  -76.4154 C.2       3 UNK         0.4895 
     56 O         -77.5202   22.9566  -77.1395 O.2       3 UNK        -0.5091 
     57 CA        -79.8929   23.2520  -76.9780 C.3       3 UNK         0.0250 
     58 CB        -80.5926   21.9318  -76.6193 C.3       3 UNK        -0.1996 
     59 N         -80.7019   24.3846  -76.5166 N.am      3 UNK        -0.4254 
     60 C         -80.4851   25.6564  -76.8843 C.2       2 UNK         0.5004 
     61 O         -79.6009   25.9967  -77.6697 O.2       2 UNK        -0.5226 
     62 CA        -81.3661   26.7428  -76.2392 C.3       2 UNK         0.0269 
     63 CB        -82.6271   26.9790  -77.0850 C.3       2 UNK        -0.1926 
     64 N         -81.7548   26.4763  -74.8479 N.am      2 UNK        -0.4687 
     65 C         -80.9017   26.2348  -73.8424 C.2       1 UNK         0.5165 
     66 O         -79.6808   26.1783  -73.9921 O.2       1 UNK        -0.5079 
     67 H67       -81.2179   21.6915  -71.2764 H         1 UNK         0.0900 
     68 H68       -79.7611   21.8404  -72.2622 H         1 UNK         0.0900 
     69 H69       -79.8958   22.7374  -70.7487 H         1 UNK         0.0900 
     70 H70       -80.5438   24.8783  -70.9558 H         1 UNK         0.2959 
     71 H71       -82.5796   25.8459  -72.5877 H         1 UNK         0.1079 
     72 H72       -82.3134   27.4728  -71.0784 H         1 UNK         0.0837 
     73 H73       -81.0976   28.1548  -72.0808 H         1 UNK         0.0837 
     74 H74       -77.8418   26.6208  -70.1641 H         1 UNK         0.0685 
     75 H75       -78.5546   26.4344  -71.7349 H         1 UNK         0.0685 
     76 H76       -79.0439   28.4654  -73.1430 H         1 UNK         0.1434 
     77 H77       -76.5600   31.8741  -72.3807 H         1 UNK         0.1329 
     78 H78       -76.9015   28.7540  -69.4551 H         1 UNK         0.1335 
     79 H79       -75.6210   32.2018  -70.1786 H         1 UNK         0.0680 
     80 H80       -76.2014   31.1996  -68.8824 H         1 UNK         0.0680 
     81 H81       -73.5247   32.3492  -70.9569 H         1 UNK         0.1032 
     82 H82       -72.3337   31.9837  -69.7531 H         1 UNK         0.1032 
     83 H83       -71.4482   31.6806  -71.9956 H         1 UNK         0.0461 
     84 H84       -71.7236   28.2750  -72.2045 H         1 UNK         0.3453 
     85 H85       -70.4115   27.9221  -71.1065 H         1 UNK         0.3453 
     86 H86       -73.8233   30.1065  -72.5336 H         1 UNK         0.2984 
     87 H87       -74.2878   29.3351  -74.5138 H         1 UNK         0.0554 
     88 H88       -74.1316   31.5359  -75.6900 H         1 UNK         0.0847 
     89 H89       -74.3919   30.2401  -76.8407 H         1 UNK         0.0847 
     90 H90       -72.7884   30.9457  -76.6588 H         1 UNK         0.0847 
     91 H91       -72.6575   28.4268  -76.6221 H         1 UNK         0.3141 
     92 H92       -71.0930   26.7331  -76.5377 H         1 UNK         0.0743 
     93 H93       -71.2509   24.8037  -74.1545 H         1 UNK         0.0784 
     94 H94       -70.1170   24.7130  -75.5007 H         1 UNK         0.0784 
     95 H95       -70.0173   26.0409  -74.3582 H         1 UNK         0.0784 
     96 H96       -73.5911   25.3484  -75.9825 H         1 UNK         0.3213 
     97 H97       -73.2183   23.1761  -78.8695 H         1 UNK         0.0855 
     98 H98       -74.1538   22.9172  -75.9631 H         1 UNK         0.0814 
     99 H99       -72.9595   21.9135  -76.7667 H         1 UNK         0.0814 
    100 H100      -74.6347   21.8696  -77.2946 H         1 UNK         0.0814 
    101 H101      -75.4931   24.3933  -77.5228 H         1 UNK         0.3105 
    102 H102      -76.0682   26.8465  -80.0083 H         1 UNK         0.0547 
    103 H103      -77.0370   24.8222  -81.1004 H         1 UNK         0.0837 
    104 H104      -77.6208   24.2434  -79.5465 H         1 UNK         0.0837 
    105 H105      -78.2722   25.7268  -80.2391 H         1 UNK         0.0837 
    106 H106      -77.6626   26.0547  -77.8051 H         1 UNK         0.3020 
    107 H107      -75.9126   27.8760  -75.2676 H         1 UNK         0.1245 
    108 H108      -78.6246   28.3464  -75.2469 H         1 UNK         0.0781 
    109 H109      -78.3535   28.5785  -76.9303 H         1 UNK         0.0781 
    110 H110      -79.3031   30.5916  -74.4665 H         1 UNK         0.0836 
    111 H111      -78.2003   31.9122  -74.2059 H         1 UNK         0.0836 
    112 H112      -78.1467   26.1825  -75.0394 H         1 UNK         0.3022 
    113 H113      -76.3570   23.0991  -74.7854 H         1 UNK         0.0747 
    114 H114      -77.4144   22.8751  -72.6370 H         1 UNK         0.0793 
    115 H115      -76.2600   24.1889  -72.4812 H         1 UNK         0.0793 
    116 H116      -77.9769   24.5389  -72.6432 H         1 UNK         0.0793 
    117 H117      -79.1397   24.0087  -74.6478 H         1 UNK         0.3047 
    118 H118      -79.8192   23.3123  -78.0662 H         1 UNK         0.0822 
    119 H119      -81.5854   21.8746  -77.0659 H         1 UNK         0.0807 
    120 H120      -80.7021   21.8098  -75.5411 H         1 UNK         0.0807 
    121 H121      -80.0228   21.0773  -76.9872 H         1 UNK         0.0807 
    122 H122      -81.4216   24.1899  -75.8326 H         1 UNK         0.2946 
    123 H123      -80.7830   27.6656  -76.2409 H         1 UNK         0.1144 
    124 H124      -83.2041   27.8253  -76.7115 H         1 UNK         0.0793 
    125 H125      -83.2784   26.1041  -77.0928 H         1 UNK         0.0793 
    126 H126      -82.3665   27.2006  -78.1211 H         1 UNK         0.0793 
    127 H127      -82.7458   26.4894  -74.6523 H         1 UNK         0.2896 
@<TRIPOS>BOND
     1    1    2 1    
     2    1   67 1    
     3    1   68 1    
     4    1   69 1    
     5    2    3 2    
     6    2    4 am   BACKBONE|DICT|INTERRES
     7    4    5 1    
     8    4   70 1    
     9    5    6 1    
    10    5   65 1    
    11    5   71 1    
    12    6    7 1    
    13    6   72 1    
    14    6   73 1    
    15    7    8 1    
    16    8    9 1    
    17    8   74 1    
    18    8   75 1    
    19    9   10 ar   
    20    9   14 ar   
    21   10   11 ar   
    22   10   76 1    
    23   11   12 ar   
    24   11   48 1    
    25   12   13 ar   
    26   12   77 1    
    27   13   14 ar   
    28   13   15 1    
    29   14   78 1    
    30   15   16 1    
    31   15   79 1    
    32   15   80 1    
    33   16   17 1    
    34   17   18 1    
    35   17   81 1    
    36   17   82 1    
    37   18   19 1    
    38   18   22 1    
    39   18   83 1    
    40   19   20 am   BACKBONE|DICT|INTERRES
    41   19   21 2    
    42   20   84 1    
    43   20   85 1    
    44   22   23 am   BACKBONE|DICT|INTERRES
    45   22   86 1    
    46   23   24 2    
    47   23   25 1    
    48   25   26 1    
    49   25   27 1    
    50   25   87 1    
    51   26   88 1    
    52   26   89 1    
    53   26   90 1    
    54   27   28 am   BACKBONE|DICT|INTERRES
    55   27   91 1    
    56   28   29 2    
    57   28   30 1    
    58   30   31 1    
    59   30   32 1    
    60   30   92 1    
    61   31   93 1    
    62   31   94 1    
    63   31   95 1    
    64   32   33 am   BACKBONE|DICT|INTERRES
    65   32   96 1    
    66   33   34 2    
    67   33   35 1    
    68   35   36 1    
    69   35   37 1    
    70   35   97 1    
    71   36   98 1    
    72   36   99 1    
    73   36  100 1    
    74   37   38 am   BACKBONE|DICT|INTERRES
    75   37  101 1    
    76   38   39 2    
    77   38   40 1    
    78   40   41 1    
    79   40   42 1    
    80   40  102 1    
    81   41  103 1    
    82   41  104 1    
    83   41  105 1    
    84   42   43 am   BACKBONE|DICT|INTERRES
    85   42  106 1    
    86   43   44 2    
    87   43   45 1    
    88   45   46 1    
    89   45   49 1    
    90   45  107 1    
    91   46   47 1    
    92   46  108 1    
    93   46  109 1    
    94   47   48 1    
    95   48  110 1    
    96   48  111 1    
    97   49   50 am   BACKBONE|DICT|INTERRES
    98   49  112 1    
    99   50   51 2    
   100   50   52 1    
   101   52   53 1    
   102   52   54 1    
   103   52  113 1    
   104   53  114 1    
   105   53  115 1    
   106   53  116 1    
   107   54   55 am   BACKBONE|DICT|INTERRES
   108   54  117 1    
   109   55   56 2    
   110   55   57 1    
   111   57   58 1    
   112   57   59 1    
   113   57  118 1    
   114   58  119 1    
   115   58  120 1    
   116   58  121 1    
   117   59   60 am   BACKBONE|DICT|INTERRES
   118   59  122 1    
   119   60   61 2    
   120   60   62 1    
   121   62   63 1    
   122   62   64 1    
   123   62  123 1    
   124   63  124 1    
   125   63  125 1    
   126   63  126 1    
   127   64   65 am   BACKBONE|DICT|INTERRES
   128   64  127 1    
   129   65   66 2    
@<TRIPOS>SUBSTRUCTURE
     1 UNK         1 GROUP             0       ****    0 ROOT    
