@<TRIPOS>MOLECULE
3R135
127   129    1
SMALL
USER_CHARGES


@<TRIPOS>ATOM
      1 CA        -79.8015   29.6438  -76.6741 C.3       0 UNK        -0.1998 
      2 C         -79.8749   28.5785  -75.5912 C.2       0 UNK         0.4909 
      3 O         -79.2982   27.4997  -75.7447 O.2       0 UNK        -0.5240 
      4 N         -80.5890   28.8761  -74.4982 N.am      1 UNK        -0.4739 
      5 CA        -80.8075   27.9945  -73.3467 C.3       1 UNK         0.0864 
      6 C6        -81.6310   28.6889  -72.2318 C.3       11 UNK        -0.0881 
      7 S7        -80.9470   30.3055  -71.7187 S.3       11 UNK        -0.2682 
      8 C8        -80.2971   29.9595  -70.0541 C.3       11 UNK         0.0289 
      9 C9        -78.9061   29.3461  -70.1056 C.ar      11 UNK        -0.0687 
     10 C10       -78.7478   27.9579  -70.1333 C.ar      11 UNK        -0.0823 
     11 C11       -77.4702   27.3927  -70.1755 C.ar      11 UNK        -0.0830 
     12 C12       -76.3476   28.2245  -70.1517 C.ar      11 UNK        -0.1021 
     13 C13       -76.4906   29.6144  -70.1243 C.ar      11 UNK        -0.0753 
     14 C14       -77.7743   30.1696  -70.1074 C.ar      11 UNK        -0.0933 
     15 C15       -75.2586   30.5094  -70.0642 C.3       11 UNK         0.0166 
     16 S16       -74.0800   30.1974  -71.4204 S.3       11 UNK        -0.2615 
     17 C17       -74.8711   31.0470  -72.8317 C.3       11 UNK        -0.0865 
     18 CA        -75.0278   30.1500  -74.0951 C.3       10 UNK         0.0862 
     19 C         -75.7849   30.9123  -75.2249 C.2       10 UNK         0.5551 
     20 N         -75.2558   31.0274  -76.4355 N.am      10 UNK        -0.7319 
     21 O         -76.8957   31.3860  -75.0022 O.2       10 UNK        -0.5018 
     22 N         -73.7748   29.4659  -74.4833 N.am      10 UNK        -0.4509 
     23 C         -72.6171   30.0360  -74.8425 C.2       10 UNK         0.4899 
     24 O         -72.4946   31.2436  -75.0476 O.2       10 UNK        -0.4839 
     25 CA        -71.3629   29.1481  -74.9604 C.3       9 UNK         0.0222 
     26 CB        -70.4516   29.4139  -73.7410 C.3       9 UNK        -0.1966 
     27 N         -71.6270   27.7057  -75.0966 N.am      9 UNK        -0.4218 
     28 C         -70.6970   26.7934  -75.4231 C.2       9 UNK         0.5020 
     29 O         -69.5346   27.0750  -75.7200 O.2       9 UNK        -0.5274 
     30 CA        -71.1171   25.3134  -75.4081 C.3       8 UNK         0.0270 
     31 CB        -71.5167   24.8451  -73.9972 C.3       8 UNK        -0.1976 
     32 N         -72.1998   25.0508  -76.3532 N.am      8 UNK        -0.4313 
     33 C         -72.0295   24.8579  -77.6694 C.2       8 UNK         0.5041 
     34 O         -70.9276   24.7834  -78.2151 O.2       8 UNK        -0.5577 
     35 CA        -73.2993   24.7428  -78.5357 C.3       7 UNK         0.0284 
     36 CB        -73.7155   23.2733  -78.7072 C.3       7 UNK        -0.1958 
     37 N         -74.4261   25.5148  -78.0069 N.am      7 UNK        -0.4454 
     38 C         -74.4372   26.8501  -77.8939 C.2       7 UNK         0.5089 
     39 O         -73.5418   27.5868  -78.3074 O.2       7 UNK        -0.5125 
     40 CA        -75.6297   27.4667  -77.1528 C.3       6 UNK         0.0408 
     41 CB        -76.7697   27.7680  -78.1353 C.3       6 UNK        -0.1791 
     42 N         -76.1159   26.6473  -76.0373 N.am      6 UNK        -0.4762 
     43 C         -75.4014   26.3469  -74.9407 C.2       6 UNK         0.5007 
     44 O         -74.2524   26.7423  -74.7462 O.2       6 UNK        -0.5032 
     45 CA        -76.0648   25.4285  -73.8998 C.3       5 UNK         0.0783 
     46 C46       -77.1257   26.2212  -73.1073 C.3       11 UNK        -0.0857 
     47 S47       -77.9735   25.2224  -71.8360 S.3       11 UNK        -0.2512 
     48 C48       -77.2950   25.8846  -70.2793 C.3       11 UNK         0.0225 
     49 N         -76.6193   24.2338  -74.5337 N.am      5 UNK        -0.4615 
     50 C         -75.9159   23.3039  -75.1943 C.2       4 UNK         0.5053 
     51 O         -74.6870   23.2849  -75.2503 O.2       4 UNK        -0.5105 
     52 CA        -76.7350   22.2556  -75.9712 C.3       4 UNK         0.0263 
     53 CB        -76.9847   21.0136  -75.1023 C.3       4 UNK        -0.1981 
     54 N         -78.0194   22.7932  -76.4335 N.am      4 UNK        -0.4224 
     55 C         -78.1579   23.8169  -77.2863 C.2       3 UNK         0.4895 
     56 O         -77.2177   24.3035  -77.9152 O.2       3 UNK        -0.5091 
     57 CA        -79.5468   24.4727  -77.3801 C.3       3 UNK         0.0250 
     58 CB        -80.4505   23.7434  -78.3928 C.3       3 UNK        -0.1996 
     59 N         -80.2062   24.6647  -76.0741 N.am      3 UNK        -0.4254 
     60 C         -80.7246   23.7386  -75.2492 C.2       2 UNK         0.5004 
     61 O         -80.6964   22.5321  -75.4967 O.2       2 UNK        -0.5226 
     62 CA        -81.3224   24.2070  -73.9052 C.3       2 UNK         0.0269 
     63 CB        -81.0039   23.2139  -72.7714 C.3       2 UNK        -0.1926 
     64 N         -80.8598   25.5397  -73.5041 N.am      2 UNK        -0.4687 
     65 C         -81.4929   26.6837  -73.7902 C.2       1 UNK         0.5165 
     66 O         -82.5629   26.7364  -74.4009 O.2       1 UNK        -0.5079 
     67 H67       -80.5532   30.4195  -76.5299 H         1 UNK         0.0900 
     68 H68       -78.8204   30.1174  -76.6674 H         1 UNK         0.0900 
     69 H69       -79.9632   29.1967  -77.6545 H         1 UNK         0.0900 
     70 H70       -81.0342   29.7799  -74.4302 H         1 UNK         0.2959 
     71 H71       -79.8240   27.7572  -72.9378 H         1 UNK         0.1079 
     72 H72       -81.7178   28.0356  -71.3619 H         1 UNK         0.0837 
     73 H73       -82.6536   28.8664  -72.5713 H         1 UNK         0.0837 
     74 H74       -80.2607   30.8966  -69.4964 H         1 UNK         0.0685 
     75 H75       -80.9850   29.3138  -69.5062 H         1 UNK         0.0685 
     76 H76       -79.6171   27.3149  -70.1399 H         1 UNK         0.1434 
     77 H77       -75.3559   27.7932  -70.1707 H         1 UNK         0.1329 
     78 H78       -77.8960   31.2439  -70.0804 H         1 UNK         0.1335 
     79 H79       -75.5353   31.5649  -70.0624 H         1 UNK         0.0680 
     80 H80       -74.7492   30.3272  -69.1170 H         1 UNK         0.0680 
     81 H81       -75.8478   31.4184  -72.5154 H         1 UNK         0.1032 
     82 H82       -74.2781   31.9324  -73.0673 H         1 UNK         0.1032 
     83 H83       -75.7011   29.3370  -73.8204 H         1 UNK         0.0461 
     84 H84       -74.3218   30.6925  -76.6101 H         1 UNK         0.3453 
     85 H85       -75.7622   31.5209  -77.1527 H         1 UNK         0.3453 
     86 H86       -73.8209   28.4566  -74.3959 H         1 UNK         0.2984 
     87 H87       -70.8404   29.4742  -75.8621 H         1 UNK         0.0554 
     88 H88       -69.4718   28.9504  -73.8517 H         1 UNK         0.0847 
     89 H89       -70.8991   29.0368  -72.8205 H         1 UNK         0.0847 
     90 H90       -70.2776   30.4820  -73.6023 H         1 UNK         0.0847 
     91 H91       -72.5747   27.3783  -74.9238 H         1 UNK         0.3141 
     92 H92       -70.2482   24.7220  -75.7060 H         1 UNK         0.0743 
     93 H93       -70.6990   25.0005  -73.2922 H         1 UNK         0.0784 
     94 H94       -72.3835   25.3778  -73.6083 H         1 UNK         0.0784 
     95 H95       -71.7531   23.7808  -73.9891 H         1 UNK         0.0784 
     96 H96       -73.1430   25.0840  -75.9880 H         1 UNK         0.3213 
     97 H97       -73.0601   25.1453  -79.5224 H         1 UNK         0.0855 
     98 H98       -73.9276   22.7979  -77.7500 H         1 UNK         0.0814 
     99 H99       -72.9201   22.6989  -79.1840 H         1 UNK         0.0814 
    100 H100      -74.6034   23.1804  -79.3330 H         1 UNK         0.0814 
    101 H101      -75.2483   25.0011  -77.7068 H         1 UNK         0.3105 
    102 H102      -75.2873   28.4098  -76.7330 H         1 UNK         0.0547 
    103 H103      -76.4198   28.3923  -78.9585 H         1 UNK         0.0837 
    104 H104      -77.1878   26.8606  -78.5703 H         1 UNK         0.0837 
    105 H105      -77.5752   28.3087  -77.6468 H         1 UNK         0.0837 
    106 H106      -77.0609   26.2979  -76.1181 H         1 UNK         0.3020 
    107 H107      -75.2855   25.1038  -73.2063 H         1 UNK         0.1245 
    108 H108      -77.8922   26.6052  -73.7794 H         1 UNK         0.0781 
    109 H109      -76.6683   27.1014  -72.6559 H         1 UNK         0.0781 
    110 H110      -76.2422   25.6068  -70.2079 H         1 UNK         0.0836 
    111 H111      -77.7974   25.4043  -69.4387 H         1 UNK         0.0836 
    112 H112      -77.6232   24.1472  -74.5163 H         1 UNK         0.3022 
    113 H113      -76.1558   21.9592  -76.8478 H         1 UNK         0.0747 
    114 H114      -77.5088   20.2382  -75.6613 H         1 UNK         0.0793 
    115 H115      -76.0431   20.5837  -74.7575 H         1 UNK         0.0793 
    116 H116      -77.5794   21.2504  -74.2190 H         1 UNK         0.0793 
    117 H117      -78.8654   22.4471  -75.9868 H         1 UNK         0.3047 
    118 H118      -79.3826   25.4806  -77.7656 H         1 UNK         0.0822 
    119 H119      -81.4151   24.2410  -78.4924 H         1 UNK         0.0807 
    120 H120      -80.6348   22.7066  -78.1109 H         1 UNK         0.0807 
    121 H121      -79.9893   23.7299  -79.3812 H         1 UNK         0.0807 
    122 H122      -80.2157   25.6299  -75.7588 H         1 UNK         0.2946 
    123 H123      -82.4069   24.2208  -74.0369 H         1 UNK         0.1144 
    124 H124      -79.9304   23.0643  -72.6526 H         1 UNK         0.0793 
    125 H125      -81.4468   22.2368  -72.9691 H         1 UNK         0.0793 
    126 H126      -81.4029   23.5578  -71.8170 H         1 UNK         0.0793 
    127 H127      -79.9812   25.5709  -73.0022 H         1 UNK         0.2896 
@<TRIPOS>BOND
     1    1    2 1    
     2    1   67 1    
     3    1   68 1    
     4    1   69 1    
     5    2    3 2    
     6    2    4 am   BACKBONE|DICT|INTERRES
     7    4    5 1    
     8    4   70 1    
     9    5    6 1    
    10    5   65 1    
    11    5   71 1    
    12    6    7 1    
    13    6   72 1    
    14    6   73 1    
    15    7    8 1    
    16    8    9 1    
    17    8   74 1    
    18    8   75 1    
    19    9   10 ar   
    20    9   14 ar   
    21   10   11 ar   
    22   10   76 1    
    23   11   12 ar   
    24   11   48 1    
    25   12   13 ar   
    26   12   77 1    
    27   13   14 ar   
    28   13   15 1    
    29   14   78 1    
    30   15   16 1    
    31   15   79 1    
    32   15   80 1    
    33   16   17 1    
    34   17   18 1    
    35   17   81 1    
    36   17   82 1    
    37   18   19 1    
    38   18   22 1    
    39   18   83 1    
    40   19   20 am   BACKBONE|DICT|INTERRES
    41   19   21 2    
    42   20   84 1    
    43   20   85 1    
    44   22   23 am   BACKBONE|DICT|INTERRES
    45   22   86 1    
    46   23   24 2    
    47   23   25 1    
    48   25   26 1    
    49   25   27 1    
    50   25   87 1    
    51   26   88 1    
    52   26   89 1    
    53   26   90 1    
    54   27   28 am   BACKBONE|DICT|INTERRES
    55   27   91 1    
    56   28   29 2    
    57   28   30 1    
    58   30   31 1    
    59   30   32 1    
    60   30   92 1    
    61   31   93 1    
    62   31   94 1    
    63   31   95 1    
    64   32   33 am   BACKBONE|DICT|INTERRES
    65   32   96 1    
    66   33   34 2    
    67   33   35 1    
    68   35   36 1    
    69   35   37 1    
    70   35   97 1    
    71   36   98 1    
    72   36   99 1    
    73   36  100 1    
    74   37   38 am   BACKBONE|DICT|INTERRES
    75   37  101 1    
    76   38   39 2    
    77   38   40 1    
    78   40   41 1    
    79   40   42 1    
    80   40  102 1    
    81   41  103 1    
    82   41  104 1    
    83   41  105 1    
    84   42   43 am   BACKBONE|DICT|INTERRES
    85   42  106 1    
    86   43   44 2    
    87   43   45 1    
    88   45   46 1    
    89   45   49 1    
    90   45  107 1    
    91   46   47 1    
    92   46  108 1    
    93   46  109 1    
    94   47   48 1    
    95   48  110 1    
    96   48  111 1    
    97   49   50 am   BACKBONE|DICT|INTERRES
    98   49  112 1    
    99   50   51 2    
   100   50   52 1    
   101   52   53 1    
   102   52   54 1    
   103   52  113 1    
   104   53  114 1    
   105   53  115 1    
   106   53  116 1    
   107   54   55 am   BACKBONE|DICT|INTERRES
   108   54  117 1    
   109   55   56 2    
   110   55   57 1    
   111   57   58 1    
   112   57   59 1    
   113   57  118 1    
   114   58  119 1    
   115   58  120 1    
   116   58  121 1    
   117   59   60 am   BACKBONE|DICT|INTERRES
   118   59  122 1    
   119   60   61 2    
   120   60   62 1    
   121   62   63 1    
   122   62   64 1    
   123   62  123 1    
   124   63  124 1    
   125   63  125 1    
   126   63  126 1    
   127   64   65 am   BACKBONE|DICT|INTERRES
   128   64  127 1    
   129   65   66 2    
@<TRIPOS>SUBSTRUCTURE
     1 UNK         1 GROUP             0       ****    0 ROOT    
