@<TRIPOS>MOLECULE
3R135
127   129    1
SMALL
USER_CHARGES


@<TRIPOS>ATOM
      1 CA        -78.4232   30.3809  -76.1715 C.3       0 UNK        -0.1998 
      2 C         -78.8996   29.4439  -75.0719 C.2       0 UNK         0.4909 
      3 O         -78.1200   28.6311  -74.5829 O.2       0 UNK        -0.5240 
      4 N         -80.1699   29.5561  -74.6675 N.am      1 UNK        -0.4739 
      5 CA        -80.7774   28.6928  -73.6536 C.3       1 UNK         0.0864 
      6 C6        -81.9614   29.4091  -72.9599 C.3       11 UNK        -0.0881 
      7 S7        -82.4725   28.6118  -71.4017 S.3       11 UNK        -0.2682 
      8 C8        -81.4205   29.4650  -70.1770 C.3       11 UNK         0.0289 
      9 C9        -79.9593   29.0334  -70.2489 C.ar      11 UNK        -0.0687 
     10 C10       -79.6232   27.6775  -70.1808 C.ar      11 UNK        -0.0823 
     11 C11       -78.2900   27.2643  -70.2436 C.ar      11 UNK        -0.0830 
     12 C12       -77.2815   28.2329  -70.3169 C.ar      11 UNK        -0.1021 
     13 C13       -77.5989   29.5907  -70.4045 C.ar      11 UNK        -0.0753 
     14 C14       -78.9410   29.9854  -70.3712 C.ar      11 UNK        -0.0933 
     15 C15       -76.4905   30.6303  -70.5163 C.3       11 UNK         0.0166 
     16 S16       -76.2184   31.1679  -72.2366 S.3       11 UNK        -0.2615 
     17 C17       -75.2565   29.7855  -72.9484 C.3       11 UNK        -0.0865 
     18 CA        -73.8120   30.1921  -73.3634 C.3       10 UNK         0.0862 
     19 C         -72.7600   29.8591  -72.2619 C.2       10 UNK         0.5551 
     20 N         -71.6858   29.1335  -72.5542 N.am      10 UNK        -0.7319 
     21 O         -72.9151   30.2745  -71.1167 O.2       10 UNK        -0.5018 
     22 N         -73.4744   29.6672  -74.6972 N.am      10 UNK        -0.4509 
     23 C         -72.6055   30.2335  -75.5443 C.2       10 UNK         0.4899 
     24 O         -72.0379   31.3048  -75.3226 O.2       10 UNK        -0.4839 
     25 CA        -72.3245   29.4736  -76.8572 C.3       9 UNK         0.0222 
     26 CB        -71.0820   30.0038  -77.6037 C.3       9 UNK        -0.1966 
     27 N         -72.2381   28.0172  -76.6903 N.am      9 UNK        -0.4218 
     28 C         -71.3989   27.3322  -75.8962 C.2       9 UNK         0.5020 
     29 O         -70.5735   27.8739  -75.1587 O.2       9 UNK        -0.5274 
     30 CA        -71.4961   25.7906  -75.8858 C.3       8 UNK         0.0270 
     31 CB        -71.7031   25.2688  -74.4530 C.3       8 UNK        -0.1976 
     32 N         -72.5582   25.2552  -76.7434 N.am      8 UNK        -0.4313 
     33 C         -72.4777   25.0970  -78.0716 C.2       8 UNK         0.5041 
     34 O         -71.4562   25.3099  -78.7252 O.2       8 UNK        -0.5577 
     35 CA        -73.7708   24.6845  -78.8015 C.3       7 UNK         0.0284 
     36 CB        -73.9157   23.1551  -78.8391 C.3       7 UNK        -0.1958 
     37 N         -74.9753   25.2834  -78.2143 N.am      7 UNK        -0.4454 
     38 C         -75.2194   26.6022  -78.1657 C.2       7 UNK         0.5089 
     39 O         -74.4876   27.4515  -78.6732 O.2       7 UNK        -0.5125 
     40 CA        -76.4380   27.0572  -77.3489 C.3       6 UNK         0.0408 
     41 CB        -77.7368   26.9122  -78.1560 C.3       6 UNK        -0.1791 
     42 N         -76.5521   26.3271  -76.0875 N.am      6 UNK        -0.4762 
     43 C         -75.6769   26.4000  -75.0760 C.2       6 UNK         0.5007 
     44 O         -74.6938   27.1399  -75.0790 O.2       6 UNK        -0.5032 
     45 CA        -75.8881   25.4462  -73.8859 C.3       5 UNK         0.0783 
     46 C46       -76.8054   26.0596  -72.8062 C.3       11 UNK        -0.0857 
     47 S47       -76.5113   25.2694  -71.1883 S.3       11 UNK        -0.2512 
     48 C48       -77.9779   25.7684  -70.2201 C.3       11 UNK         0.0225 
     49 N         -76.3661   24.1351  -74.3253 N.am      5 UNK        -0.4615 
     50 C         -75.6266   23.2436  -74.9941 C.2       4 UNK         0.5053 
     51 O         -74.4419   23.4163  -75.2785 O.2       4 UNK        -0.5105 
     52 CA        -76.3422   21.9604  -75.4488 C.3       4 UNK         0.0263 
     53 CB        -76.3462   20.9164  -74.3210 C.3       4 UNK        -0.1981 
     54 N         -77.7171   22.2092  -75.8948 N.am      4 UNK        -0.4224 
     55 C         -78.0329   22.8940  -77.0034 C.2       3 UNK         0.4895 
     56 O         -77.1979   23.3490  -77.7862 O.2       3 UNK        -0.5091 
     57 CA        -79.5304   23.1531  -77.2594 C.3       3 UNK         0.0250 
     58 CB        -80.1811   21.9343  -77.9329 C.3       3 UNK        -0.1996 
     59 N         -80.3034   23.5303  -76.0653 N.am      3 UNK        -0.4254 
     60 C         -80.0185   24.5738  -75.2730 C.2       2 UNK         0.5004 
     61 O         -79.0129   25.2675  -75.4113 O.2       2 UNK        -0.5226 
     62 CA        -80.9791   24.8643  -74.1053 C.3       2 UNK         0.0269 
     63 CB        -80.7099   23.8927  -72.9437 C.3       2 UNK        -0.1926 
     64 N         -80.8269   26.2372  -73.6086 N.am      2 UNK        -0.4687 
     65 C         -81.1765   27.3416  -74.2835 C.2       1 UNK         0.5165 
     66 O         -81.7968   27.3263  -75.3507 O.2       1 UNK        -0.5079 
     67 H67       -77.5243   30.9069  -75.8477 H         1 UNK         0.0900 
     68 H68       -79.1782   31.1250  -76.4291 H         1 UNK         0.0900 
     69 H69       -78.1824   29.8132  -77.0703 H         1 UNK         0.0900 
     70 H70       -80.7897   30.2078  -75.1270 H         1 UNK         0.2959 
     71 H71       -80.0119   28.4995  -72.9004 H         1 UNK         0.1079 
     72 H72       -82.8251   29.4651  -73.6254 H         1 UNK         0.0837 
     73 H73       -81.6935   30.4434  -72.7370 H         1 UNK         0.0837 
     74 H74       -81.5198   30.5441  -70.3044 H         1 UNK         0.0685 
     75 H75       -81.7976   29.2391  -69.1788 H         1 UNK         0.0685 
     76 H76       -80.4101   26.9407  -70.0897 H         1 UNK         0.1434 
     77 H77       -76.2441   27.9297  -70.3296 H         1 UNK         0.1329 
     78 H78       -79.1884   31.0364  -70.4325 H         1 UNK         0.1335 
     79 H79       -75.5570   30.2499  -70.0987 H         1 UNK         0.0680 
     80 H80       -76.7546   31.5030  -69.9174 H         1 UNK         0.0680 
     81 H81       -75.8167   29.4463  -73.8197 H         1 UNK         0.1032 
     82 H82       -75.2489   28.9342  -72.2681 H         1 UNK         0.1032 
     83 H83       -73.7900   31.2800  -73.4511 H         1 UNK         0.0461 
     84 H84       -71.5138   28.8066  -73.4971 H         1 UNK         0.3453 
     85 H85       -71.0169   28.9352  -71.8275 H         1 UNK         0.3453 
     86 H86       -73.8741   28.7599  -74.9331 H         1 UNK         0.2984 
     87 H87       -73.1908   29.6513  -77.4957 H         1 UNK         0.0554 
     88 H88       -70.9258   29.4710  -78.5417 H         1 UNK         0.0847 
     89 H89       -70.1765   29.9012  -77.0045 H         1 UNK         0.0847 
     90 H90       -71.1922   31.0610  -77.8484 H         1 UNK         0.0847 
     91 H91       -72.9125   27.4894  -77.2323 H         1 UNK         0.3141 
     92 H92       -70.5384   25.4094  -76.2460 H         1 UNK         0.0743 
     93 H93       -72.6076   25.6773  -74.0035 H         1 UNK         0.0784 
     94 H94       -71.7775   24.1813  -74.4309 H         1 UNK         0.0784 
     95 H95       -70.8678   25.5479  -73.8094 H         1 UNK         0.0784 
     96 H96       -73.4199   24.9865  -76.2801 H         1 UNK         0.3213 
     97 H97       -73.6946   25.0432  -79.8302 H         1 UNK         0.0855 
     98 H98       -74.0040   22.7310  -77.8390 H         1 UNK         0.0814 
     99 H99       -73.0488   22.6933  -79.3135 H         1 UNK         0.0814 
    100 H100      -74.7958   22.8541  -79.4078 H         1 UNK         0.0814 
    101 H101      -75.6629   24.6478  -77.8189 H         1 UNK         0.3105 
    102 H102      -76.3043   28.1132  -77.1058 H         1 UNK         0.0547 
    103 H103      -77.9179   25.8787  -78.4507 H         1 UNK         0.0837 
    104 H104      -78.5992   27.2489  -77.5799 H         1 UNK         0.0837 
    105 H105      -77.6979   27.5102  -79.0671 H         1 UNK         0.0837 
    106 H106      -77.3998   25.7777  -75.9460 H         1 UNK         0.3020 
    107 H107      -74.8989   25.3039  -73.4452 H         1 UNK         0.1245 
    108 H108      -76.6149   27.1268  -72.7010 H         1 UNK         0.0781 
    109 H109      -77.8567   25.9715  -73.0826 H         1 UNK         0.0781 
    110 H110      -78.8328   25.2014  -70.5907 H         1 UNK         0.0836 
    111 H111      -77.8319   25.4599  -69.1843 H         1 UNK         0.0836 
    112 H112      -77.3478   23.9496  -74.1868 H         1 UNK         0.3022 
    113 H113      -75.7813   21.5501  -76.2915 H         1 UNK         0.0747 
    114 H114      -76.7814   19.9741  -74.6543 H         1 UNK         0.0793 
    115 H115      -75.3300   20.7016  -73.9868 H         1 UNK         0.0793 
    116 H116      -76.9092   21.2590  -73.4519 H         1 UNK         0.0793 
    117 H117      -78.4644   21.8674  -75.3084 H         1 UNK         0.3047 
    118 H118      -79.5919   23.9928  -77.9549 H         1 UNK         0.0822 
    119 H119      -81.2061   22.1483  -78.2364 H         1 UNK         0.0807 
    120 H120      -80.2003   21.0671  -77.2716 H         1 UNK         0.0807 
    121 H121      -79.6338   21.6466  -78.8319 H         1 UNK         0.0807 
    122 H122      -81.1357   22.9891  -75.8781 H         1 UNK         0.2946 
    123 H123      -82.0051   24.7357  -74.4576 H         1 UNK         0.1144 
    124 H124      -81.3708   24.0899  -72.0993 H         1 UNK         0.0793 
    125 H125      -79.6809   23.9625  -72.5883 H         1 UNK         0.0793 
    126 H126      -80.8790   22.8588  -73.2474 H         1 UNK         0.0793 
    127 H127      -80.3075   26.3467  -72.7511 H         1 UNK         0.2896 
@<TRIPOS>BOND
     1    1    2 1    
     2    1   67 1    
     3    1   68 1    
     4    1   69 1    
     5    2    3 2    
     6    2    4 am   BACKBONE|DICT|INTERRES
     7    4    5 1    
     8    4   70 1    
     9    5    6 1    
    10    5   65 1    
    11    5   71 1    
    12    6    7 1    
    13    6   72 1    
    14    6   73 1    
    15    7    8 1    
    16    8    9 1    
    17    8   74 1    
    18    8   75 1    
    19    9   10 ar   
    20    9   14 ar   
    21   10   11 ar   
    22   10   76 1    
    23   11   12 ar   
    24   11   48 1    
    25   12   13 ar   
    26   12   77 1    
    27   13   14 ar   
    28   13   15 1    
    29   14   78 1    
    30   15   16 1    
    31   15   79 1    
    32   15   80 1    
    33   16   17 1    
    34   17   18 1    
    35   17   81 1    
    36   17   82 1    
    37   18   19 1    
    38   18   22 1    
    39   18   83 1    
    40   19   20 am   BACKBONE|DICT|INTERRES
    41   19   21 2    
    42   20   84 1    
    43   20   85 1    
    44   22   23 am   BACKBONE|DICT|INTERRES
    45   22   86 1    
    46   23   24 2    
    47   23   25 1    
    48   25   26 1    
    49   25   27 1    
    50   25   87 1    
    51   26   88 1    
    52   26   89 1    
    53   26   90 1    
    54   27   28 am   BACKBONE|DICT|INTERRES
    55   27   91 1    
    56   28   29 2    
    57   28   30 1    
    58   30   31 1    
    59   30   32 1    
    60   30   92 1    
    61   31   93 1    
    62   31   94 1    
    63   31   95 1    
    64   32   33 am   BACKBONE|DICT|INTERRES
    65   32   96 1    
    66   33   34 2    
    67   33   35 1    
    68   35   36 1    
    69   35   37 1    
    70   35   97 1    
    71   36   98 1    
    72   36   99 1    
    73   36  100 1    
    74   37   38 am   BACKBONE|DICT|INTERRES
    75   37  101 1    
    76   38   39 2    
    77   38   40 1    
    78   40   41 1    
    79   40   42 1    
    80   40  102 1    
    81   41  103 1    
    82   41  104 1    
    83   41  105 1    
    84   42   43 am   BACKBONE|DICT|INTERRES
    85   42  106 1    
    86   43   44 2    
    87   43   45 1    
    88   45   46 1    
    89   45   49 1    
    90   45  107 1    
    91   46   47 1    
    92   46  108 1    
    93   46  109 1    
    94   47   48 1    
    95   48  110 1    
    96   48  111 1    
    97   49   50 am   BACKBONE|DICT|INTERRES
    98   49  112 1    
    99   50   51 2    
   100   50   52 1    
   101   52   53 1    
   102   52   54 1    
   103   52  113 1    
   104   53  114 1    
   105   53  115 1    
   106   53  116 1    
   107   54   55 am   BACKBONE|DICT|INTERRES
   108   54  117 1    
   109   55   56 2    
   110   55   57 1    
   111   57   58 1    
   112   57   59 1    
   113   57  118 1    
   114   58  119 1    
   115   58  120 1    
   116   58  121 1    
   117   59   60 am   BACKBONE|DICT|INTERRES
   118   59  122 1    
   119   60   61 2    
   120   60   62 1    
   121   62   63 1    
   122   62   64 1    
   123   62  123 1    
   124   63  124 1    
   125   63  125 1    
   126   63  126 1    
   127   64   65 am   BACKBONE|DICT|INTERRES
   128   64  127 1    
   129   65   66 2    
@<TRIPOS>SUBSTRUCTURE
     1 UNK         1 GROUP             0       ****    0 ROOT    
