@<TRIPOS>MOLECULE
3R135
127   129    1
SMALL
USER_CHARGES


@<TRIPOS>ATOM
      1 CA        -83.1288   29.4213  -74.8266 C.3       0 UNK        -0.1998 
      2 C         -82.8516   28.1998  -73.9637 C.2       0 UNK         0.4909 
      3 O         -83.7809   27.4733  -73.6122 O.2       0 UNK        -0.5240 
      4 N         -81.5749   27.9578  -73.6374 N.am      1 UNK        -0.4739 
      5 CA        -81.0420   26.8693  -72.7993 C.3       1 UNK         0.0864 
      6 C6        -81.6437   26.8473  -71.3680 C.3       11 UNK        -0.0881 
      7 S7        -80.4345   26.3286  -70.1032 S.3       11 UNK        -0.2682 
      8 C8        -79.7720   27.9311  -69.5394 C.3       11 UNK         0.0289 
      9 C9        -78.7776   28.5134  -70.5348 C.ar      11 UNK        -0.0687 
     10 C10       -79.2044   29.3966  -71.5318 C.ar      11 UNK        -0.0823 
     11 C11       -78.3007   29.9094  -72.4688 C.ar      11 UNK        -0.0830 
     12 C12       -76.9467   29.5725  -72.3618 C.ar      11 UNK        -0.1021 
     13 C13       -76.5048   28.7024  -71.3610 C.ar      11 UNK        -0.0753 
     14 C14       -77.4255   28.1686  -70.4556 C.ar      11 UNK        -0.0933 
     15 C15       -75.0307   28.3498  -71.2574 C.3       11 UNK         0.0166 
     16 S16       -74.1057   29.7068  -70.4738 S.3       11 UNK        -0.2615 
     17 C17       -72.3845   29.1131  -70.5957 C.3       11 UNK        -0.0865 
     18 CA        -71.6466   29.7018  -71.8279 C.3       10 UNK         0.0862 
     19 C         -70.1090   29.4658  -71.7390 C.2       10 UNK         0.5551 
     20 N         -69.4669   28.8074  -72.6973 N.am      10 UNK        -0.7319 
     21 O         -69.4805   29.9008  -70.7772 O.2       10 UNK        -0.5018 
     22 N         -72.2573   29.2289  -73.0776 N.am      10 UNK        -0.4509 
     23 C         -72.2254   29.8622  -74.2551 C.2       10 UNK         0.4899 
     24 O         -71.7406   30.9825  -74.4204 O.2       10 UNK        -0.4839 
     25 CA        -72.8395   29.0945  -75.4451 C.3       9 UNK         0.0222 
     26 CB        -72.3138   29.5856  -76.8096 C.3       9 UNK        -0.1966 
     27 N         -72.7015   27.6336  -75.3381 N.am      9 UNK        -0.4218 
     28 C         -71.5601   26.9370  -75.2075 C.2       9 UNK         0.5020 
     29 O         -70.4422   27.4486  -75.1367 O.2       9 UNK        -0.5274 
     30 CA        -71.6900   25.4133  -75.1121 C.3       8 UNK         0.0270 
     31 CB        -72.0937   24.9891  -73.6887 C.3       8 UNK        -0.1976 
     32 N         -72.6659   24.9111  -76.0811 N.am      8 UNK        -0.4313 
     33 C         -72.3389   24.3769  -77.2646 C.2       8 UNK         0.5041 
     34 O         -71.1804   24.2227  -77.6549 O.2       8 UNK        -0.5577 
     35 CA        -73.4944   23.9172  -78.1647 C.3       7 UNK         0.0284 
     36 CB        -74.0645   22.5762  -77.6723 C.3       7 UNK        -0.1958 
     37 N         -74.5764   24.8961  -78.2795 N.am      7 UNK        -0.4454 
     38 C         -74.4997   26.0452  -78.9659 C.2       7 UNK         0.5089 
     39 O         -73.4699   26.4621  -79.4960 O.2       7 UNK        -0.5125 
     40 CA        -75.7999   26.8518  -79.1119 C.3       6 UNK         0.0408 
     41 CB        -76.7448   26.1781  -80.1211 C.3       6 UNK        -0.1791 
     42 N         -76.4826   26.9933  -77.8264 N.am      6 UNK        -0.4762 
     43 C         -76.3925   28.0715  -77.0334 C.2       6 UNK         0.5007 
     44 O         -75.7902   29.0963  -77.3517 O.2       6 UNK        -0.5032 
     45 CA        -77.0552   27.9892  -75.6366 C.3       5 UNK         0.0783 
     46 C46       -78.3691   28.8101  -75.5520 C.3       11 UNK        -0.0857 
     47 S47       -78.0485   30.5764  -75.2106 S.3       11 UNK        -0.2512 
     48 C48       -78.8048   30.8454  -73.5664 C.3       11 UNK         0.0225 
     49 N         -77.2470   26.6094  -75.1771 N.am      5 UNK        -0.4615 
     50 C         -76.2441   25.7830  -74.8567 C.2       4 UNK         0.5053 
     51 O         -75.0551   26.0979  -74.9177 O.2       4 UNK        -0.5105 
     52 CA        -76.6196   24.3501  -74.4561 C.3       4 UNK         0.0263 
     53 CB        -76.8159   24.2614  -72.9348 C.3       4 UNK        -0.1981 
     54 N         -77.7972   23.8177  -75.1572 N.am      4 UNK        -0.4224 
     55 C         -77.8635   23.6239  -76.4853 C.2       3 UNK         0.4895 
     56 O         -76.9979   24.0158  -77.2669 O.2       3 UNK        -0.5091 
     57 CA        -79.0708   22.8603  -77.0559 C.3       3 UNK         0.0250 
     58 CB        -78.7159   21.3762  -77.2395 C.3       3 UNK        -0.1996 
     59 N         -80.2763   22.9713  -76.2351 N.am      3 UNK        -0.4254 
     60 C         -81.0510   24.0619  -76.1868 C.2       2 UNK         0.5004 
     61 O         -80.8504   25.0696  -76.8679 O.2       2 UNK        -0.5226 
     62 CA        -82.2263   24.0610  -75.1877 C.3       2 UNK         0.0269 
     63 CB        -82.4091   22.7397  -74.4050 C.3       2 UNK        -0.1926 
     64 N         -82.1079   25.1957  -74.2662 N.am      2 UNK        -0.4687 
     65 C         -81.0607   25.4857  -73.4812 C.2       1 UNK         0.5165 
     66 O         -80.0954   24.7345  -73.3376 O.2       1 UNK        -0.5079 
     67 H67       -83.6209   29.1226  -75.7518 H         1 UNK         0.0900 
     68 H68       -83.7866   30.1109  -74.2983 H         1 UNK         0.0900 
     69 H69       -82.2151   29.9558  -75.0864 H         1 UNK         0.0900 
     70 H70       -80.8718   28.5810  -74.0048 H         1 UNK         0.2959 
     71 H71       -79.9810   27.1041  -72.7118 H         1 UNK         0.1079 
     72 H72       -82.0134   27.8363  -71.0940 H         1 UNK         0.0837 
     73 H73       -82.5166   26.1936  -71.3169 H         1 UNK         0.0837 
     74 H74       -80.5885   28.6309  -69.3550 H         1 UNK         0.0685 
     75 H75       -79.2805   27.7841  -68.5765 H         1 UNK         0.0685 
     76 H76       -80.2496   29.6691  -71.5865 H         1 UNK         0.1434 
     77 H77       -76.2300   29.9915  -73.0545 H         1 UNK         0.1329 
     78 H78       -77.0897   27.4905  -69.6829 H         1 UNK         0.1335 
     79 H79       -74.6396   28.1508  -72.2553 H         1 UNK         0.0680 
     80 H80       -74.8922   27.4340  -70.6804 H         1 UNK         0.0680 
     81 H81       -72.3613   28.0219  -70.6085 H         1 UNK         0.1032 
     82 H82       -71.8836   29.4106  -69.6722 H         1 UNK         0.1032 
     83 H83       -71.7700   30.7861  -71.7921 H         1 UNK         0.0461 
     84 H84       -68.4717   28.6749  -72.6146 H         1 UNK         0.3453 
     85 H85       -69.9516   28.4492  -73.5137 H         1 UNK         0.3453 
     86 H86       -72.6525   28.3025  -73.0518 H         1 UNK         0.2984 
     87 H87       -73.9090   29.3018  -75.4083 H         1 UNK         0.0554 
     88 H88       -71.2347   29.4565  -76.8977 H         1 UNK         0.0847 
     89 H89       -72.5302   30.6444  -76.9556 H         1 UNK         0.0847 
     90 H90       -72.7859   29.0455  -77.6309 H         1 UNK         0.0847 
     91 H91       -73.5748   27.1105  -75.3105 H         1 UNK         0.3141 
     92 H92       -70.7057   24.9849  -75.3135 H         1 UNK         0.0743 
     93 H93       -71.3566   25.3288  -72.9597 H         1 UNK         0.0784 
     94 H94       -73.0580   25.3995  -73.3893 H         1 UNK         0.0784 
     95 H95       -72.1539   23.9039  -73.6042 H         1 UNK         0.0784 
     96 H96       -73.6445   25.0508  -75.8535 H         1 UNK         0.3213 
     97 H97       -73.0859   23.7575  -79.1652 H         1 UNK         0.0855 
     98 H98       -74.5152   22.6645  -76.6833 H         1 UNK         0.0814 
     99 H99       -73.2820   21.8188  -77.6085 H         1 UNK         0.0814 
    100 H100      -74.8276   22.1969  -78.3523 H         1 UNK         0.0814 
    101 H101      -75.4794   24.6138  -77.8987 H         1 UNK         0.3105 
    102 H102      -75.5401   27.8345  -79.5114 H         1 UNK         0.0547 
    103 H103      -77.6414   26.7767  -80.2818 H         1 UNK         0.0837 
    104 H104      -77.0602   25.1879  -79.7903 H         1 UNK         0.0837 
    105 H105      -76.2583   26.0582  -81.0901 H         1 UNK         0.0837 
    106 H106      -76.9595   26.1711  -77.4768 H         1 UNK         0.3020 
    107 H107      -76.3356   28.4321  -74.9449 H         1 UNK         0.1245 
    108 H108      -79.0000   28.4224  -74.7535 H         1 UNK         0.0781 
    109 H109      -78.9603   28.7180  -76.4654 H         1 UNK         0.0781 
    110 H110      -79.8876   30.7648  -73.6720 H         1 UNK         0.0836 
    111 H111      -78.6061   31.8730  -73.2595 H         1 UNK         0.0836 
    112 H112      -78.1930   26.2598  -75.1315 H         1 UNK         0.3022 
    113 H113      -75.7747   23.7109  -74.7199 H         1 UNK         0.0747 
    114 H114      -77.0645   23.2474  -72.6218 H         1 UNK         0.0793 
    115 H115      -75.9036   24.5477  -72.4095 H         1 UNK         0.0793 
    116 H116      -77.6074   24.9254  -72.5859 H         1 UNK         0.0793 
    117 H117      -78.5884   23.5580  -74.5811 H         1 UNK         0.3047 
    118 H118      -79.2831   23.2802  -78.0418 H         1 UNK         0.0822 
    119 H119      -79.5276   20.8305  -77.7210 H         1 UNK         0.0807 
    120 H120      -78.5010   20.8895  -76.2872 H         1 UNK         0.0807 
    121 H121      -77.8327   21.2618  -77.8701 H         1 UNK         0.0807 
    122 H122      -80.4999   22.1902  -75.6352 H         1 UNK         0.2946 
    123 H123      -83.1279   24.2270  -75.7798 H         1 UNK         0.1144 
    124 H124      -81.5449   22.4987  -73.7850 H         1 UNK         0.0793 
    125 H125      -82.5829   21.9005  -75.0798 H         1 UNK         0.0793 
    126 H126      -83.2752   22.7976  -73.7456 H         1 UNK         0.0793 
    127 H127      -82.8504   25.8880  -74.3030 H         1 UNK         0.2896 
@<TRIPOS>BOND
     1    1    2 1    
     2    1   67 1    
     3    1   68 1    
     4    1   69 1    
     5    2    3 2    
     6    2    4 am   BACKBONE|DICT|INTERRES
     7    4    5 1    
     8    4   70 1    
     9    5    6 1    
    10    5   65 1    
    11    5   71 1    
    12    6    7 1    
    13    6   72 1    
    14    6   73 1    
    15    7    8 1    
    16    8    9 1    
    17    8   74 1    
    18    8   75 1    
    19    9   10 ar   
    20    9   14 ar   
    21   10   11 ar   
    22   10   76 1    
    23   11   12 ar   
    24   11   48 1    
    25   12   13 ar   
    26   12   77 1    
    27   13   14 ar   
    28   13   15 1    
    29   14   78 1    
    30   15   16 1    
    31   15   79 1    
    32   15   80 1    
    33   16   17 1    
    34   17   18 1    
    35   17   81 1    
    36   17   82 1    
    37   18   19 1    
    38   18   22 1    
    39   18   83 1    
    40   19   20 am   BACKBONE|DICT|INTERRES
    41   19   21 2    
    42   20   84 1    
    43   20   85 1    
    44   22   23 am   BACKBONE|DICT|INTERRES
    45   22   86 1    
    46   23   24 2    
    47   23   25 1    
    48   25   26 1    
    49   25   27 1    
    50   25   87 1    
    51   26   88 1    
    52   26   89 1    
    53   26   90 1    
    54   27   28 am   BACKBONE|DICT|INTERRES
    55   27   91 1    
    56   28   29 2    
    57   28   30 1    
    58   30   31 1    
    59   30   32 1    
    60   30   92 1    
    61   31   93 1    
    62   31   94 1    
    63   31   95 1    
    64   32   33 am   BACKBONE|DICT|INTERRES
    65   32   96 1    
    66   33   34 2    
    67   33   35 1    
    68   35   36 1    
    69   35   37 1    
    70   35   97 1    
    71   36   98 1    
    72   36   99 1    
    73   36  100 1    
    74   37   38 am   BACKBONE|DICT|INTERRES
    75   37  101 1    
    76   38   39 2    
    77   38   40 1    
    78   40   41 1    
    79   40   42 1    
    80   40  102 1    
    81   41  103 1    
    82   41  104 1    
    83   41  105 1    
    84   42   43 am   BACKBONE|DICT|INTERRES
    85   42  106 1    
    86   43   44 2    
    87   43   45 1    
    88   45   46 1    
    89   45   49 1    
    90   45  107 1    
    91   46   47 1    
    92   46  108 1    
    93   46  109 1    
    94   47   48 1    
    95   48  110 1    
    96   48  111 1    
    97   49   50 am   BACKBONE|DICT|INTERRES
    98   49  112 1    
    99   50   51 2    
   100   50   52 1    
   101   52   53 1    
   102   52   54 1    
   103   52  113 1    
   104   53  114 1    
   105   53  115 1    
   106   53  116 1    
   107   54   55 am   BACKBONE|DICT|INTERRES
   108   54  117 1    
   109   55   56 2    
   110   55   57 1    
   111   57   58 1    
   112   57   59 1    
   113   57  118 1    
   114   58  119 1    
   115   58  120 1    
   116   58  121 1    
   117   59   60 am   BACKBONE|DICT|INTERRES
   118   59  122 1    
   119   60   61 2    
   120   60   62 1    
   121   62   63 1    
   122   62   64 1    
   123   62  123 1    
   124   63  124 1    
   125   63  125 1    
   126   63  126 1    
   127   64   65 am   BACKBONE|DICT|INTERRES
   128   64  127 1    
   129   65   66 2    
@<TRIPOS>SUBSTRUCTURE
     1 UNK         1 GROUP             0       ****    0 ROOT    
