@<TRIPOS>MOLECULE
3R135
127   129    1
SMALL
USER_CHARGES


@<TRIPOS>ATOM
      1 CA        -85.4439   26.2129  -72.0541 C.3       0 UNK        -0.1998 
      2 C         -84.9055   26.6576  -73.4055 C.2       0 UNK         0.4909 
      3 O         -85.5434   26.4132  -74.4301 O.2       0 UNK        -0.5240 
      4 N         -83.7363   27.3108  -73.4159 N.am      1 UNK        -0.4739 
      5 CA        -83.0459   27.7825  -74.6241 C.3       1 UNK         0.0864 
      6 C6        -81.9933   28.8682  -74.2912 C.3       11 UNK        -0.0881 
      7 S7        -80.7228   28.3092  -73.1070 S.3       11 UNK        -0.2682 
      8 C8        -79.6726   29.7974  -73.0119 C.3       11 UNK         0.0289 
      9 C9        -78.2867   29.5451  -72.4207 C.ar      11 UNK        -0.0687 
     10 C10       -78.0546   28.5380  -71.4751 C.ar      11 UNK        -0.0823 
     11 C11       -76.7752   28.3235  -70.9573 C.ar      11 UNK        -0.0830 
     12 C12       -75.7205   29.1393  -71.3728 C.ar      11 UNK        -0.1021 
     13 C13       -75.9376   30.1595  -72.3030 C.ar      11 UNK        -0.0753 
     14 C14       -77.2209   30.3583  -72.8198 C.ar      11 UNK        -0.0933 
     15 C15       -74.7932   31.0669  -72.7225 C.3       11 UNK         0.0166 
     16 S16       -74.2668   30.7588  -74.4378 S.3       11 UNK        -0.2615 
     17 C17       -72.6732   31.6581  -74.4395 C.3       11 UNK        -0.0865 
     18 CA        -71.4182   30.7475  -74.5694 C.3       10 UNK         0.0862 
     19 C         -70.1306   31.5780  -74.2909 C.2       10 UNK         0.5551 
     20 N         -69.4348   31.3692  -73.1804 N.am      10 UNK        -0.7319 
     21 O         -69.7673   32.4327  -75.0950 O.2       10 UNK        -0.5018 
     22 N         -71.5663   29.4886  -73.8171 N.am      10 UNK        -0.4509 
     23 C         -70.7334   28.4408  -73.8523 C.2       10 UNK         0.4899 
     24 O         -69.6280   28.4503  -74.3934 O.2       10 UNK        -0.4839 
     25 CA        -71.2578   27.1348  -73.2329 C.3       9 UNK         0.0222 
     26 CB        -72.1773   27.3544  -72.0149 C.3       9 UNK        -0.1966 
     27 N         -71.9879   26.4108  -74.2714 N.am      9 UNK        -0.4218 
     28 C         -71.4155   25.6378  -75.2058 C.2       9 UNK         0.5020 
     29 O         -70.2450   25.2552  -75.1643 O.2       9 UNK        -0.5274 
     30 CA        -72.2861   25.2481  -76.4127 C.3       8 UNK         0.0270 
     31 CB        -73.1411   24.0126  -76.0947 C.3       8 UNK        -0.1976 
     32 N         -73.1486   26.3419  -76.8681 N.am      8 UNK        -0.4313 
     33 C         -72.7289   27.5046  -77.3865 C.2       8 UNK         0.5041 
     34 O         -71.5458   27.7547  -77.6176 O.2       8 UNK        -0.5577 
     35 CA        -73.7822   28.5915  -77.6865 C.3       7 UNK         0.0284 
     36 CB        -74.1530   28.6124  -79.1827 C.3       7 UNK        -0.1958 
     37 N         -74.9771   28.5477  -76.8296 N.am      7 UNK        -0.4454 
     38 C         -75.9404   27.6194  -76.7854 C.2       7 UNK         0.5089 
     39 O         -75.9910   26.6384  -77.5278 O.2       7 UNK        -0.5125 
     40 CA        -76.9816   27.7721  -75.6673 C.3       6 UNK         0.0408 
     41 CB        -78.3838   27.9773  -76.2610 C.3       6 UNK        -0.1791 
     42 N         -76.9809   26.6051  -74.7793 N.am      6 UNK        -0.4762 
     43 C         -75.9227   26.2032  -74.0541 C.2       6 UNK         0.5007 
     44 O         -74.8328   26.7791  -74.0674 O.2       6 UNK        -0.5032 
     45 CA        -76.0655   24.9150  -73.2248 C.3       5 UNK         0.0783 
     46 C46       -76.7598   25.1441  -71.8599 C.3       11 UNK        -0.0857 
     47 S47       -75.6049   25.8209  -70.6182 S.3       11 UNK        -0.2512 
     48 C48       -76.5389   27.2248  -69.9312 C.3       11 UNK         0.0225 
     49 N         -76.7220   23.8667  -74.0085 N.am      5 UNK        -0.4615 
     50 C         -76.2414   22.6238  -74.1615 C.2       4 UNK         0.5053 
     51 O         -75.2222   22.2126  -73.6066 O.2       4 UNK        -0.5105 
     52 CA        -77.0126   21.6614  -75.0865 C.3       4 UNK         0.0263 
     53 CB        -77.8537   20.6789  -74.2552 C.3       4 UNK        -0.1981 
     54 N         -77.8871   22.3476  -76.0366 N.am      4 UNK        -0.4224 
     55 C         -77.4753   23.1230  -77.0493 C.2       3 UNK         0.4895 
     56 O         -76.3000   23.2089  -77.4015 O.2       3 UNK        -0.5091 
     57 CA        -78.5467   23.9568  -77.7811 C.3       3 UNK         0.0250 
     58 CB        -78.7075   23.4765  -79.2331 C.3       3 UNK        -0.1996 
     59 N         -79.8672   23.9682  -77.1346 N.am      3 UNK        -0.4254 
     60 C         -80.1499   24.4794  -75.9278 C.2       2 UNK         0.5004 
     61 O         -79.3090   24.9847  -75.1781 O.2       2 UNK        -0.5226 
     62 CA        -81.5951   24.2953  -75.4409 C.3       2 UNK         0.0269 
     63 CB        -81.6706   23.1355  -74.4341 C.3       2 UNK        -0.1926 
     64 N         -82.1270   25.5035  -74.8144 N.am      2 UNK        -0.4687 
     65 C         -82.4438   26.6325  -75.4648 C.2       1 UNK         0.5165 
     66 O         -82.3071   26.7793  -76.6806 O.2       1 UNK        -0.5079 
     67 H67       -84.7817   26.4990  -71.2371 H         1 UNK         0.0900 
     68 H68       -85.5585   25.1294  -72.0343 H         1 UNK         0.0900 
     69 H69       -86.4197   26.6625  -71.8727 H         1 UNK         0.0900 
     70 H70       -83.2506   27.4878  -72.5473 H         1 UNK         0.2959 
     71 H71       -83.7987   28.2525  -75.2615 H         1 UNK         0.1079 
     72 H72       -81.5047   29.2166  -75.2035 H         1 UNK         0.0837 
     73 H73       -82.4920   29.7423  -73.8692 H         1 UNK         0.0837 
     74 H74       -79.5656   30.2093  -74.0166 H         1 UNK         0.0685 
     75 H75       -80.1819   30.5544  -72.4143 H         1 UNK         0.0685 
     76 H76       -78.8692   27.9129  -71.1382 H         1 UNK         0.1434 
     77 H77       -74.7333   28.9807  -70.9621 H         1 UNK         0.1329 
     78 H78       -77.3861   31.1499  -73.5381 H         1 UNK         0.1335 
     79 H79       -75.0987   32.1095  -72.6221 H         1 UNK         0.0680 
     80 H80       -73.9431   30.9288  -72.0521 H         1 UNK         0.0680 
     81 H81       -72.6099   32.2660  -73.5346 H         1 UNK         0.1032 
     82 H82       -72.6936   32.3736  -75.2639 H         1 UNK         0.1032 
     83 H83       -71.3529   30.4444  -75.6163 H         1 UNK         0.0461 
     84 H84       -68.6025   31.9101  -73.0066 H         1 UNK         0.3453 
     85 H85       -69.7228   30.6581  -72.5278 H         1 UNK         0.3453 
     86 H86       -72.4612   29.3701  -73.3661 H         1 UNK         0.2984 
     87 H87       -70.3979   26.5477  -72.9040 H         1 UNK         0.0554 
     88 H88       -72.4337   26.4043  -71.5458 H         1 UNK         0.0847 
     89 H89       -73.1142   27.8418  -72.2838 H         1 UNK         0.0847 
     90 H90       -71.6879   27.9661  -71.2560 H         1 UNK         0.0847 
     91 H91       -72.9749   26.6411  -74.3701 H         1 UNK         0.3141 
     92 H92       -71.6141   24.9941  -77.2351 H         1 UNK         0.0743 
     93 H93       -73.8780   24.2203  -75.3197 H         1 UNK         0.0784 
     94 H94       -73.6743   23.6638  -76.9789 H         1 UNK         0.0784 
     95 H95       -72.5222   23.1859  -75.7436 H         1 UNK         0.0784 
     96 H96       -74.1509   26.2093  -76.7849 H         1 UNK         0.3213 
     97 H97       -73.3028   29.5449  -77.4574 H         1 UNK         0.0855 
     98 H98       -73.2671   28.7753  -79.7979 H         1 UNK         0.0814 
     99 H99       -74.8552   29.4151  -79.4067 H         1 UNK         0.0814 
    100 H100      -74.6003   27.6727  -79.5076 H         1 UNK         0.0814 
    101 H101      -75.0016   29.2668  -76.1157 H         1 UNK         0.3105 
    102 H102      -76.7350   28.6455  -75.0613 H         1 UNK         0.0547 
    103 H103      -78.4273   28.8933  -76.8510 H         1 UNK         0.0837 
    104 H104      -78.6734   27.1546  -76.9145 H         1 UNK         0.0837 
    105 H105      -79.1377   28.0563  -75.4813 H         1 UNK         0.0837 
    106 H106      -77.8412   26.0629  -74.7650 H         1 UNK         0.3020 
    107 H107      -75.0401   24.5960  -73.0216 H         1 UNK         0.1245 
    108 H108      -77.1185   24.1937  -71.4617 H         1 UNK         0.0781 
    109 H109      -77.6462   25.7714  -71.9646 H         1 UNK         0.0781 
    110 H110      -75.9830   27.6370  -69.0880 H         1 UNK         0.0836 
    111 H111      -77.4830   26.8610  -69.5224 H         1 UNK         0.0836 
    112 H112      -77.5682   24.1326  -74.5003 H         1 UNK         0.3022 
    113 H113      -76.2749   21.0913  -75.6554 H         1 UNK         0.0747 
    114 H114      -78.3517   19.9456  -74.8900 H         1 UNK         0.0793 
    115 H115      -77.2270   20.1250  -73.5546 H         1 UNK         0.0793 
    116 H116      -78.6177   21.1941  -73.6713 H         1 UNK         0.0793 
    117 H117      -78.8757   22.3238  -75.8381 H         1 UNK         0.3047 
    118 H118      -78.1797   24.9844  -77.8014 H         1 UNK         0.0822 
    119 H119      -79.3927   24.1160  -79.7900 H         1 UNK         0.0807 
    120 H120      -79.0843   22.4540  -79.2811 H         1 UNK         0.0807 
    121 H121      -77.7521   23.4968  -79.7596 H         1 UNK         0.0807 
    122 H122      -80.6178   23.5503  -77.6663 H         1 UNK         0.2946 
    123 H123      -82.2322   24.0553  -76.2955 H         1 UNK         0.1144 
    124 H124      -81.3226   22.2032  -74.8808 H         1 UNK         0.0793 
    125 H125      -82.6942   22.9677  -74.0982 H         1 UNK         0.0793 
    126 H126      -81.0555   23.3250  -73.5530 H         1 UNK         0.0793 
    127 H127      -82.2336   25.4908  -73.8110 H         1 UNK         0.2896 
@<TRIPOS>BOND
     1    1    2 1    
     2    1   67 1    
     3    1   68 1    
     4    1   69 1    
     5    2    3 2    
     6    2    4 am   BACKBONE|DICT|INTERRES
     7    4    5 1    
     8    4   70 1    
     9    5    6 1    
    10    5   65 1    
    11    5   71 1    
    12    6    7 1    
    13    6   72 1    
    14    6   73 1    
    15    7    8 1    
    16    8    9 1    
    17    8   74 1    
    18    8   75 1    
    19    9   10 ar   
    20    9   14 ar   
    21   10   11 ar   
    22   10   76 1    
    23   11   12 ar   
    24   11   48 1    
    25   12   13 ar   
    26   12   77 1    
    27   13   14 ar   
    28   13   15 1    
    29   14   78 1    
    30   15   16 1    
    31   15   79 1    
    32   15   80 1    
    33   16   17 1    
    34   17   18 1    
    35   17   81 1    
    36   17   82 1    
    37   18   19 1    
    38   18   22 1    
    39   18   83 1    
    40   19   20 am   BACKBONE|DICT|INTERRES
    41   19   21 2    
    42   20   84 1    
    43   20   85 1    
    44   22   23 am   BACKBONE|DICT|INTERRES
    45   22   86 1    
    46   23   24 2    
    47   23   25 1    
    48   25   26 1    
    49   25   27 1    
    50   25   87 1    
    51   26   88 1    
    52   26   89 1    
    53   26   90 1    
    54   27   28 am   BACKBONE|DICT|INTERRES
    55   27   91 1    
    56   28   29 2    
    57   28   30 1    
    58   30   31 1    
    59   30   32 1    
    60   30   92 1    
    61   31   93 1    
    62   31   94 1    
    63   31   95 1    
    64   32   33 am   BACKBONE|DICT|INTERRES
    65   32   96 1    
    66   33   34 2    
    67   33   35 1    
    68   35   36 1    
    69   35   37 1    
    70   35   97 1    
    71   36   98 1    
    72   36   99 1    
    73   36  100 1    
    74   37   38 am   BACKBONE|DICT|INTERRES
    75   37  101 1    
    76   38   39 2    
    77   38   40 1    
    78   40   41 1    
    79   40   42 1    
    80   40  102 1    
    81   41  103 1    
    82   41  104 1    
    83   41  105 1    
    84   42   43 am   BACKBONE|DICT|INTERRES
    85   42  106 1    
    86   43   44 2    
    87   43   45 1    
    88   45   46 1    
    89   45   49 1    
    90   45  107 1    
    91   46   47 1    
    92   46  108 1    
    93   46  109 1    
    94   47   48 1    
    95   48  110 1    
    96   48  111 1    
    97   49   50 am   BACKBONE|DICT|INTERRES
    98   49  112 1    
    99   50   51 2    
   100   50   52 1    
   101   52   53 1    
   102   52   54 1    
   103   52  113 1    
   104   53  114 1    
   105   53  115 1    
   106   53  116 1    
   107   54   55 am   BACKBONE|DICT|INTERRES
   108   54  117 1    
   109   55   56 2    
   110   55   57 1    
   111   57   58 1    
   112   57   59 1    
   113   57  118 1    
   114   58  119 1    
   115   58  120 1    
   116   58  121 1    
   117   59   60 am   BACKBONE|DICT|INTERRES
   118   59  122 1    
   119   60   61 2    
   120   60   62 1    
   121   62   63 1    
   122   62   64 1    
   123   62  123 1    
   124   63  124 1    
   125   63  125 1    
   126   63  126 1    
   127   64   65 am   BACKBONE|DICT|INTERRES
   128   64  127 1    
   129   65   66 2    
@<TRIPOS>SUBSTRUCTURE
     1 UNK         1 GROUP             0       ****    0 ROOT    
