@<TRIPOS>MOLECULE
3R135
127   129    1
SMALL
USER_CHARGES


@<TRIPOS>ATOM
      1 CA        -82.8559   30.5642  -75.1680 C.3       0 UNK        -0.1998 
      2 C         -83.9142   29.6995  -74.4890 C.2       0 UNK         0.4909 
      3 O         -85.1019   29.9955  -74.6101 O.2       0 UNK        -0.5240 
      4 N         -83.5497   28.6290  -73.7735 N.am      1 UNK        -0.4739 
      5 CA        -82.2000   28.0853  -73.5909 C.3       1 UNK         0.0864 
      6 C6        -81.6790   28.2761  -72.1434 C.3       11 UNK        -0.0881 
      7 S7        -81.5439   30.0261  -71.6475 S.3       11 UNK        -0.2682 
      8 C8        -80.6737   29.8789  -70.0555 C.3       11 UNK         0.0289 
      9 C9        -79.1864   29.6287  -70.2529 C.ar      11 UNK        -0.0687 
     10 C10       -78.6717   28.3312  -70.1971 C.ar      11 UNK        -0.0823 
     11 C11       -77.3105   28.1010  -70.4106 C.ar      11 UNK        -0.0830 
     12 C12       -76.4572   29.1848  -70.6359 C.ar      11 UNK        -0.1021 
     13 C13       -76.9546   30.4940  -70.6956 C.ar      11 UNK        -0.0753 
     14 C14       -78.3242   30.7005  -70.5019 C.ar      11 UNK        -0.0933 
     15 C15       -76.0782   31.7192  -70.9776 C.3       11 UNK         0.0166 
     16 S16       -74.2817   31.4265  -71.1425 S.3       11 UNK        -0.2615 
     17 C17       -74.1885   30.6261  -72.7817 C.3       11 UNK        -0.0865 
     18 CA        -72.8909   29.7993  -72.9689 C.3       10 UNK         0.0862 
     19 C         -72.8434   28.5329  -72.0776 C.2       10 UNK         0.5551 
     20 N         -71.9527   28.4886  -71.0969 N.am      10 UNK        -0.7319 
     21 O         -73.6246   27.6021  -72.2528 O.2       10 UNK        -0.5018 
     22 N         -72.7378   29.3925  -74.3655 N.am      10 UNK        -0.4509 
     23 C         -71.9104   29.9484  -75.2565 C.2       10 UNK         0.4899 
     24 O         -71.2340   30.9541  -75.0340 O.2       10 UNK        -0.4839 
     25 CA        -71.8231   29.2425  -76.6240 C.3       9 UNK         0.0222 
     26 CB        -70.6595   29.7498  -77.5018 C.3       9 UNK        -0.1966 
     27 N         -71.7861   27.7819  -76.4892 N.am      9 UNK        -0.4218 
     28 C         -70.8679   27.0372  -75.8527 C.2       9 UNK         0.5020 
     29 O         -69.8375   27.4913  -75.3531 O.2       9 UNK        -0.5274 
     30 CA        -71.1498   25.5278  -75.7190 C.3       8 UNK         0.0270 
     31 CB        -71.5472   25.1915  -74.2720 C.3       8 UNK        -0.1976 
     32 N         -72.1920   25.0369  -76.6261 N.am      8 UNK        -0.4313 
     33 C         -72.0450   24.8971  -77.9509 C.2       8 UNK         0.5041 
     34 O         -70.9856   25.0959  -78.5469 O.2       8 UNK        -0.5577 
     35 CA        -73.2972   24.5023  -78.7516 C.3       7 UNK         0.0284 
     36 CB        -73.5031   22.9795  -78.7182 C.3       7 UNK        -0.1958 
     37 N         -74.5136   25.1795  -78.2890 N.am      7 UNK        -0.4454 
     38 C         -74.7227   26.5034  -78.3482 C.2       7 UNK         0.5089 
     39 O         -73.9181   27.3030  -78.8250 O.2       7 UNK        -0.5125 
     40 CA        -76.0256   27.0357  -77.7260 C.3       6 UNK         0.0408 
     41 CB        -77.2212   26.8054  -78.6628 C.3       6 UNK        -0.1791 
     42 N         -76.3011   26.4502  -76.4128 N.am      6 UNK        -0.4762 
     43 C         -75.5244   26.6099  -75.3300 C.2       6 UNK         0.5007 
     44 O         -74.5207   27.3223  -75.3089 O.2       6 UNK        -0.5032 
     45 CA        -75.9126   25.8021  -74.0777 C.3       5 UNK         0.0783 
     46 C46       -76.9878   26.5555  -73.2588 C.3       11 UNK        -0.0857 
     47 S47       -77.4913   25.6632  -71.7464 S.3       11 UNK        -0.2512 
     48 C48       -76.7594   26.6806  -70.4205 C.3       11 UNK         0.0225 
     49 N         -76.3218   24.4408  -74.4367 N.am      5 UNK        -0.4615 
     50 C         -75.5027   23.5100  -74.9441 C.2       4 UNK         0.5053 
     51 O         -74.3039   23.6913  -75.1527 O.2       4 UNK        -0.5105 
     52 CA        -76.1408   22.1647  -75.3259 C.3       4 UNK         0.0263 
     53 CB        -76.3225   21.2783  -74.0835 C.3       4 UNK        -0.1981 
     54 N         -77.4267   22.3290  -76.0079 N.am      4 UNK        -0.4224 
     55 C         -77.5795   22.9163  -77.2039 C.2       3 UNK         0.4895 
     56 O         -76.6457   23.3317  -77.8875 O.2       3 UNK        -0.5091 
     57 CA        -79.0193   23.1171  -77.7037 C.3       3 UNK         0.0250 
     58 CB        -79.4970   21.8814  -78.4825 C.3       3 UNK        -0.1996 
     59 N         -79.9727   23.4253  -76.6327 N.am      3 UNK        -0.4254 
     60 C         -79.9097   24.5057  -75.8426 C.2       2 UNK         0.5004 
     61 O         -79.0210   25.3606  -75.9076 O.2       2 UNK        -0.5226 
     62 CA        -80.9968   24.6238  -74.7718 C.3       2 UNK         0.0269 
     63 CB        -80.6443   23.7728  -73.5379 C.3       2 UNK        -0.1926 
     64 N         -81.1318   26.0256  -74.3847 N.am      2 UNK        -0.4687 
     65 C         -82.2574   26.5854  -73.9304 C.2       1 UNK         0.5165 
     66 O         -83.3066   25.9584  -73.7530 O.2       1 UNK        -0.5079 
     67 H67       -82.0833   30.8701  -74.4638 H         1 UNK         0.0900 
     68 H68       -83.3061   31.4699  -75.5741 H         1 UNK         0.0900 
     69 H69       -82.3902   30.0252  -75.9925 H         1 UNK         0.0900 
     70 H70       -84.2730   28.0348  -73.3901 H         1 UNK         0.2959 
     71 H71       -81.4952   28.5467  -74.2839 H         1 UNK         0.1079 
     72 H72       -82.3298   27.7688  -71.4280 H         1 UNK         0.0837 
     73 H73       -80.6947   27.8161  -72.0441 H         1 UNK         0.0837 
     74 H74       -80.8158   30.8016  -69.4910 H         1 UNK         0.0685 
     75 H75       -81.1259   29.0849  -69.4589 H         1 UNK         0.0685 
     76 H76       -79.3327   27.4946  -70.0154 H         1 UNK         0.1434 
     77 H77       -75.4061   28.9903  -70.7801 H         1 UNK         0.1329 
     78 H78       -78.7264   31.7035  -70.5522 H         1 UNK         0.1335 
     79 H79       -76.2205   32.4345  -70.1662 H         1 UNK         0.0680 
     80 H80       -76.4349   32.2101  -71.8843 H         1 UNK         0.0680 
     81 H81       -74.2305   31.4179  -73.5312 H         1 UNK         0.1032 
     82 H82       -75.0689   30.0053  -72.9571 H         1 UNK         0.1032 
     83 H83       -72.0459   30.4336  -72.6924 H         1 UNK         0.0461 
     84 H84       -71.3192   29.2555  -70.9337 H         1 UNK         0.3453 
     85 H85       -71.9185   27.6744  -70.5045 H         1 UNK         0.3453 
     86 H86       -73.2631   28.5608  -74.6316 H         1 UNK         0.2984 
     87 H87       -72.7536   29.4724  -77.1451 H         1 UNK         0.0554 
     88 H88       -70.6372   29.2371  -78.4635 H         1 UNK         0.0847 
     89 H89       -69.6924   29.6029  -77.0202 H         1 UNK         0.0847 
     90 H90       -70.7612   30.8163  -77.7060 H         1 UNK         0.0847 
     91 H91       -72.6059   27.3024  -76.8394 H         1 UNK         0.3141 
     92 H92       -70.2214   25.0013  -75.9498 H         1 UNK         0.0743 
     93 H93       -72.4812   25.6789  -73.9894 H         1 UNK         0.0784 
     94 H94       -71.6752   24.1178  -74.1340 H         1 UNK         0.0784 
     95 H95       -70.7828   25.5203  -73.5666 H         1 UNK         0.0784 
     96 H96       -73.0759   24.7671  -76.1998 H         1 UNK         0.3213 
     97 H97       -73.1303   24.7992  -79.7892 H         1 UNK         0.0855 
     98 H98       -73.7153   22.6225  -77.7100 H         1 UNK         0.0814 
     99 H99       -72.6130   22.4565  -79.0704 H         1 UNK         0.0814 
    100 H100      -74.3311   22.6779  -79.3600 H         1 UNK         0.0814 
    101 H101      -75.2589   24.5830  -77.9345 H         1 UNK         0.3105 
    102 H102      -75.9117   28.1128  -77.5860 H         1 UNK         0.0547 
    103 H103      -77.0625   27.2980  -79.6228 H         1 UNK         0.0837 
    104 H104      -77.3815   25.7468  -78.8644 H         1 UNK         0.0837 
    105 H105      -78.1414   27.2079  -78.2389 H         1 UNK         0.0837 
    106 H106      -77.1399   25.8826  -76.3263 H         1 UNK         0.3020 
    107 H107      -75.0157   25.7200  -73.4600 H         1 UNK         0.1245 
    108 H108      -77.8848   26.7197  -73.8579 H         1 UNK         0.0781 
    109 H109      -76.6213   27.5482  -72.9932 H         1 UNK         0.0781 
    110 H110      -75.6742   26.6809  -70.5361 H         1 UNK         0.0836 
    111 H111      -76.9659   26.2109  -69.4580 H         1 UNK         0.0836 
    112 H112      -77.3014   24.2279  -74.3251 H         1 UNK         0.3022 
    113 H113      -75.4594   21.6570  -76.0119 H         1 UNK         0.0747 
    114 H114      -76.6993   20.2913  -74.3521 H         1 UNK         0.0793 
    115 H115      -75.3718   21.1311  -73.5689 H         1 UNK         0.0793 
    116 H116      -77.0159   21.7197  -73.3663 H         1 UNK         0.0793 
    117 H117      -78.2508   22.0099  -75.5207 H         1 UNK         0.3047 
    118 H118      -79.0106   23.9673  -78.3886 H         1 UNK         0.0822 
    119 H119      -80.4789   22.0466  -78.9264 H         1 UNK         0.0807 
    120 H120      -79.5599   20.9985  -77.8450 H         1 UNK         0.0807 
    121 H121      -78.8113   21.6461  -79.2980 H         1 UNK         0.0807 
    122 H122      -80.7315   22.7707  -76.5043 H         1 UNK         0.2946 
    123 H123      -81.9383   24.2735  -75.2024 H         1 UNK         0.1144 
    124 H124      -79.7048   24.0902  -73.0852 H         1 UNK         0.0793 
    125 H125      -80.5429   22.7188  -73.7992 H         1 UNK         0.0793 
    126 H126      -81.4199   23.8406  -72.7749 H         1 UNK         0.0793 
    127 H127      -80.3074   26.5863  -74.5617 H         1 UNK         0.2896 
@<TRIPOS>BOND
     1    1    2 1    
     2    1   67 1    
     3    1   68 1    
     4    1   69 1    
     5    2    3 2    
     6    2    4 am   BACKBONE|DICT|INTERRES
     7    4    5 1    
     8    4   70 1    
     9    5    6 1    
    10    5   65 1    
    11    5   71 1    
    12    6    7 1    
    13    6   72 1    
    14    6   73 1    
    15    7    8 1    
    16    8    9 1    
    17    8   74 1    
    18    8   75 1    
    19    9   10 ar   
    20    9   14 ar   
    21   10   11 ar   
    22   10   76 1    
    23   11   12 ar   
    24   11   48 1    
    25   12   13 ar   
    26   12   77 1    
    27   13   14 ar   
    28   13   15 1    
    29   14   78 1    
    30   15   16 1    
    31   15   79 1    
    32   15   80 1    
    33   16   17 1    
    34   17   18 1    
    35   17   81 1    
    36   17   82 1    
    37   18   19 1    
    38   18   22 1    
    39   18   83 1    
    40   19   20 am   BACKBONE|DICT|INTERRES
    41   19   21 2    
    42   20   84 1    
    43   20   85 1    
    44   22   23 am   BACKBONE|DICT|INTERRES
    45   22   86 1    
    46   23   24 2    
    47   23   25 1    
    48   25   26 1    
    49   25   27 1    
    50   25   87 1    
    51   26   88 1    
    52   26   89 1    
    53   26   90 1    
    54   27   28 am   BACKBONE|DICT|INTERRES
    55   27   91 1    
    56   28   29 2    
    57   28   30 1    
    58   30   31 1    
    59   30   32 1    
    60   30   92 1    
    61   31   93 1    
    62   31   94 1    
    63   31   95 1    
    64   32   33 am   BACKBONE|DICT|INTERRES
    65   32   96 1    
    66   33   34 2    
    67   33   35 1    
    68   35   36 1    
    69   35   37 1    
    70   35   97 1    
    71   36   98 1    
    72   36   99 1    
    73   36  100 1    
    74   37   38 am   BACKBONE|DICT|INTERRES
    75   37  101 1    
    76   38   39 2    
    77   38   40 1    
    78   40   41 1    
    79   40   42 1    
    80   40  102 1    
    81   41  103 1    
    82   41  104 1    
    83   41  105 1    
    84   42   43 am   BACKBONE|DICT|INTERRES
    85   42  106 1    
    86   43   44 2    
    87   43   45 1    
    88   45   46 1    
    89   45   49 1    
    90   45  107 1    
    91   46   47 1    
    92   46  108 1    
    93   46  109 1    
    94   47   48 1    
    95   48  110 1    
    96   48  111 1    
    97   49   50 am   BACKBONE|DICT|INTERRES
    98   49  112 1    
    99   50   51 2    
   100   50   52 1    
   101   52   53 1    
   102   52   54 1    
   103   52  113 1    
   104   53  114 1    
   105   53  115 1    
   106   53  116 1    
   107   54   55 am   BACKBONE|DICT|INTERRES
   108   54  117 1    
   109   55   56 2    
   110   55   57 1    
   111   57   58 1    
   112   57   59 1    
   113   57  118 1    
   114   58  119 1    
   115   58  120 1    
   116   58  121 1    
   117   59   60 am   BACKBONE|DICT|INTERRES
   118   59  122 1    
   119   60   61 2    
   120   60   62 1    
   121   62   63 1    
   122   62   64 1    
   123   62  123 1    
   124   63  124 1    
   125   63  125 1    
   126   63  126 1    
   127   64   65 am   BACKBONE|DICT|INTERRES
   128   64  127 1    
   129   65   66 2    
@<TRIPOS>SUBSTRUCTURE
     1 UNK         1 GROUP             0       ****    0 ROOT    
