@<TRIPOS>MOLECULE
3R135
127   129    1
SMALL
USER_CHARGES


@<TRIPOS>ATOM
      1 CA        -83.4404   31.4293  -77.0104 C.3       0 UNK        -0.1998 
      2 C         -83.0898   30.1635  -76.2425 C.2       0 UNK         0.4909 
      3 O         -83.9916   29.4519  -75.7994 O.2       0 UNK        -0.5240 
      4 N         -81.7879   29.8868  -76.0810 N.am      1 UNK        -0.4739 
      5 CA        -81.2149   28.7079  -75.4225 C.3       1 UNK         0.0864 
      6 C6        -81.6031   28.5955  -73.9201 C.3       11 UNK        -0.0881 
      7 S7        -80.5160   27.4466  -73.0143 S.3       11 UNK        -0.2682 
      8 C8        -79.3358   28.6220  -72.2661 C.3       11 UNK         0.0289 
      9 C9        -78.0884   27.9796  -71.6591 C.ar      11 UNK        -0.0687 
     10 C10       -78.1044   26.6933  -71.1059 C.ar      11 UNK        -0.0823 
     11 C11       -76.9520   26.1452  -70.5341 C.ar      11 UNK        -0.0830 
     12 C12       -75.7750   26.8981  -70.4973 C.ar      11 UNK        -0.1021 
     13 C13       -75.7512   28.1942  -71.0186 C.ar      11 UNK        -0.0753 
     14 C14       -76.9039   28.7216  -71.6086 C.ar      11 UNK        -0.0933 
     15 C15       -74.5034   29.0529  -70.8910 C.3       11 UNK         0.0166 
     16 S16       -73.3603   28.8146  -72.2830 S.3       11 UNK        -0.2615 
     17 C17       -72.3674   30.3421  -72.1327 C.3       11 UNK        -0.0865 
     18 CA        -72.8437   31.4256  -73.1431 C.3       10 UNK         0.0862 
     19 C         -72.3018   32.8546  -72.8265 C.2       10 UNK         0.5551 
     20 N         -72.1505   33.7298  -73.8130 N.am      10 UNK        -0.7319 
     21 O         -72.0498   33.1904  -71.6717 O.2       10 UNK        -0.5018 
     22 N         -72.6799   30.9751  -74.5377 N.am      10 UNK        -0.4509 
     23 C         -71.5172   30.8136  -75.1823 C.2       10 UNK         0.4899 
     24 O         -70.4185   31.1432  -74.7327 O.2       10 UNK        -0.4839 
     25 CA        -71.6188   30.1147  -76.5449 C.3       9 UNK         0.0222 
     26 CB        -70.5741   30.6168  -77.5644 C.3       9 UNK        -0.1966 
     27 N         -71.5701   28.6596  -76.3670 N.am      9 UNK        -0.4218 
     28 C         -70.5306   27.8988  -75.9769 C.2       9 UNK         0.5020 
     29 O         -69.3936   28.3269  -75.7754 O.2       9 UNK        -0.5274 
     30 CA        -70.7825   26.3897  -75.7694 C.3       8 UNK         0.0270 
     31 CB        -70.7103   26.0362  -74.2743 C.3       8 UNK        -0.1976 
     32 N         -72.0646   25.9263  -76.3025 N.am      8 UNK        -0.4313 
     33 C         -72.3772   25.8539  -77.6050 C.2       8 UNK         0.5041 
     34 O         -71.5612   26.0329  -78.5098 O.2       8 UNK        -0.5577 
     35 CA        -73.8491   25.5791  -77.9698 C.3       7 UNK         0.0284 
     36 CB        -73.9969   24.1877  -78.6055 C.3       7 UNK        -0.1958 
     37 N         -74.7798   25.7089  -76.8412 N.am      7 UNK        -0.4454 
     38 C         -75.0506   26.8533  -76.1906 C.2       7 UNK         0.5089 
     39 O         -74.5413   27.9361  -76.4856 O.2       7 UNK        -0.5125 
     40 CA        -76.0058   26.7760  -74.9847 C.3       6 UNK         0.0408 
     41 CB        -77.4096   27.2407  -75.3947 C.3       6 UNK        -0.1791 
     42 N         -76.0848   25.4388  -74.3850 N.am      6 UNK        -0.4762 
     43 C         -75.0637   24.8359  -73.7526 C.2       6 UNK         0.5007 
     44 O         -73.9621   25.3640  -73.6003 O.2       6 UNK        -0.5032 
     45 CA        -75.2508   23.3763  -73.2829 C.3       5 UNK         0.0783 
     46 C46       -75.4290   23.2600  -71.7458 C.3       11 UNK        -0.0857 
     47 S47       -77.1518   23.4519  -71.1657 S.3       11 UNK        -0.2512 
     48 C48       -77.0034   24.7593  -69.9108 C.3       11 UNK         0.0225 
     49 N         -76.2856   22.6452  -74.0208 N.am      5 UNK        -0.4615 
     50 C         -76.2563   22.3647  -75.3286 C.2       4 UNK         0.5053 
     51 O         -75.3132   22.6537  -76.0628 O.2       4 UNK        -0.5105 
     52 CA        -77.4995   21.6845  -75.9287 C.3       4 UNK         0.0263 
     53 CB        -77.2991   20.1618  -75.9868 C.3       4 UNK        -0.1981 
     54 N         -78.7553   21.9837  -75.2273 N.am      4 UNK        -0.4224 
     55 C         -79.2823   23.2078  -75.0839 C.2       3 UNK         0.4895 
     56 O         -78.7267   24.2424  -75.4577 O.2       3 UNK        -0.5091 
     57 CA        -80.6334   23.2909  -74.3579 C.3       3 UNK         0.0250 
     58 CB        -80.4233   23.5827  -72.8645 C.3       3 UNK        -0.1996 
     59 N         -81.4787   24.3352  -74.9373 N.am      3 UNK        -0.4254 
     60 C         -82.1092   24.2324  -76.1162 C.2       2 UNK         0.5004 
     61 O         -82.0853   23.2183  -76.8156 O.2       2 UNK        -0.5226 
     62 CA        -82.9273   25.4460  -76.5933 C.3       2 UNK         0.0269 
     63 CB        -84.4289   25.2023  -76.3686 C.3       2 UNK        -0.1926 
     64 N         -82.5475   26.6970  -75.9326 N.am      2 UNK        -0.4687 
     65 C         -81.4786   27.4360  -76.2578 C.2       1 UNK         0.5165 
     66 O         -80.7191   27.1612  -77.1878 O.2       1 UNK        -0.5079 
     67 H67       -84.0267   31.1806  -77.8946 H         1 UNK         0.0900 
     68 H68       -82.5517   31.9711  -77.3338 H         1 UNK         0.0900 
     69 H69       -84.0339   32.0950  -76.3841 H         1 UNK         0.0900 
     70 H70       -81.1082   30.5092  -76.4968 H         1 UNK         0.2959 
     71 H71       -80.1353   28.8645  -75.4612 H         1 UNK         0.1079 
     72 H72       -82.6398   28.2849  -73.7847 H         1 UNK         0.0837 
     73 H73       -81.5383   29.5778  -73.4494 H         1 UNK         0.0837 
     74 H74       -79.8487   29.1925  -71.4906 H         1 UNK         0.0685 
     75 H75       -79.0347   29.3366  -73.0341 H         1 UNK         0.0685 
     76 H76       -79.0155   26.1124  -71.1078 H         1 UNK         0.1434 
     77 H77       -74.8842   26.4889  -70.0407 H         1 UNK         0.1329 
     78 H78       -76.8834   29.7261  -72.0089 H         1 UNK         0.1335 
     79 H79       -74.7920   30.1038  -70.8325 H         1 UNK         0.0680 
     80 H80       -73.9842   28.8268  -69.9584 H         1 UNK         0.0680 
     81 H81       -72.4283   30.7025  -71.1043 H         1 UNK         0.1032 
     82 H82       -71.3166   30.0990  -72.2972 H         1 UNK         0.1032 
     83 H83       -73.9207   31.5308  -73.0066 H         1 UNK         0.0461 
     84 H84       -72.3576   33.4660  -74.7628 H         1 UNK         0.3453 
     85 H85       -71.8109   34.6559  -73.6063 H         1 UNK         0.3453 
     86 H86       -73.5280   30.6699  -74.9933 H         1 UNK         0.2984 
     87 H87       -72.6030   30.3351  -76.9620 H         1 UNK         0.0554 
     88 H88       -70.6705   30.0981  -78.5181 H         1 UNK         0.0847 
     89 H89       -69.5510   30.4827  -77.2127 H         1 UNK         0.0847 
     90 H90       -70.7072   31.6816  -77.7581 H         1 UNK         0.0847 
     91 H91       -72.4700   28.1998  -76.4619 H         1 UNK         0.3141 
     92 H92       -69.9867   25.8517  -76.2888 H         1 UNK         0.0743 
     93 H93       -69.7393   26.3034  -73.8553 H         1 UNK         0.0784 
     94 H94       -71.4696   26.5680  -73.6988 H         1 UNK         0.0784 
     95 H95       -70.8514   24.9680  -74.1089 H         1 UNK         0.0784 
     96 H96       -72.7947   25.7521  -75.6225 H         1 UNK         0.3213 
     97 H97       -74.1371   26.3237  -78.7150 H         1 UNK         0.0855 
     98 H98       -73.4149   24.1176  -79.5254 H         1 UNK         0.0814 
     99 H99       -75.0341   23.9707  -78.8613 H         1 UNK         0.0814 
    100 H100      -73.6411   23.4009  -77.9397 H         1 UNK         0.0814 
    101 H101      -75.2086   24.8524  -76.5099 H         1 UNK         0.3105 
    102 H102      -75.6316   27.4593  -74.2192 H         1 UNK         0.0547 
    103 H103      -77.8115   26.6463  -76.2163 H         1 UNK         0.0837 
    104 H104      -78.1046   27.1664  -74.5614 H         1 UNK         0.0837 
    105 H105      -77.3971   28.2815  -75.7198 H         1 UNK         0.0837 
    106 H106      -76.9550   24.9333  -74.5166 H         1 UNK         0.3020 
    107 H107      -74.3043   22.8868  -73.5253 H         1 UNK         0.1245 
    108 H108      -74.7723   23.9570  -71.2212 H         1 UNK         0.0781 
    109 H109      -75.1025   22.2686  -71.4285 H         1 UNK         0.0781 
    110 H110      -76.1306   24.5731  -69.2831 H         1 UNK         0.0836 
    111 H111      -77.8677   24.7031  -69.2474 H         1 UNK         0.0836 
    112 H112      -77.1052   22.3942  -73.4870 H         1 UNK         0.3022 
    113 H113      -77.6029   22.0543  -76.9510 H         1 UNK         0.0747 
    114 H114      -78.1232   19.6714  -76.5054 H         1 UNK         0.0793 
    115 H115      -76.3847   19.9089  -76.5259 H         1 UNK         0.0793 
    116 H116      -77.2205   19.7260  -74.9899 H         1 UNK         0.0793 
    117 H117      -79.2700   21.1903  -74.8722 H         1 UNK         0.3047 
    118 H118      -81.1539   22.3356  -74.4562 H         1 UNK         0.0822 
    119 H119      -79.8910   22.7640  -72.3793 H         1 UNK         0.0807 
    120 H120      -81.3722   23.7046  -72.3420 H         1 UNK         0.0807 
    121 H121      -79.8357   24.4883  -72.7113 H         1 UNK         0.0807 
    122 H122      -81.5064   25.2206  -74.4525 H         1 UNK         0.2946 
    123 H123      -82.7545   25.5497  -77.6672 H         1 UNK         0.1144 
    124 H124      -84.7582   24.2952  -76.8776 H         1 UNK         0.0793 
    125 H125      -85.0268   26.0262  -76.7591 H         1 UNK         0.0793 
    126 H126      -84.6659   25.0867  -75.3102 H         1 UNK         0.0793 
    127 H127      -83.1565   27.0314  -75.1989 H         1 UNK         0.2896 
@<TRIPOS>BOND
     1    1    2 1    
     2    1   67 1    
     3    1   68 1    
     4    1   69 1    
     5    2    3 2    
     6    2    4 am   BACKBONE|DICT|INTERRES
     7    4    5 1    
     8    4   70 1    
     9    5    6 1    
    10    5   65 1    
    11    5   71 1    
    12    6    7 1    
    13    6   72 1    
    14    6   73 1    
    15    7    8 1    
    16    8    9 1    
    17    8   74 1    
    18    8   75 1    
    19    9   10 ar   
    20    9   14 ar   
    21   10   11 ar   
    22   10   76 1    
    23   11   12 ar   
    24   11   48 1    
    25   12   13 ar   
    26   12   77 1    
    27   13   14 ar   
    28   13   15 1    
    29   14   78 1    
    30   15   16 1    
    31   15   79 1    
    32   15   80 1    
    33   16   17 1    
    34   17   18 1    
    35   17   81 1    
    36   17   82 1    
    37   18   19 1    
    38   18   22 1    
    39   18   83 1    
    40   19   20 am   BACKBONE|DICT|INTERRES
    41   19   21 2    
    42   20   84 1    
    43   20   85 1    
    44   22   23 am   BACKBONE|DICT|INTERRES
    45   22   86 1    
    46   23   24 2    
    47   23   25 1    
    48   25   26 1    
    49   25   27 1    
    50   25   87 1    
    51   26   88 1    
    52   26   89 1    
    53   26   90 1    
    54   27   28 am   BACKBONE|DICT|INTERRES
    55   27   91 1    
    56   28   29 2    
    57   28   30 1    
    58   30   31 1    
    59   30   32 1    
    60   30   92 1    
    61   31   93 1    
    62   31   94 1    
    63   31   95 1    
    64   32   33 am   BACKBONE|DICT|INTERRES
    65   32   96 1    
    66   33   34 2    
    67   33   35 1    
    68   35   36 1    
    69   35   37 1    
    70   35   97 1    
    71   36   98 1    
    72   36   99 1    
    73   36  100 1    
    74   37   38 am   BACKBONE|DICT|INTERRES
    75   37  101 1    
    76   38   39 2    
    77   38   40 1    
    78   40   41 1    
    79   40   42 1    
    80   40  102 1    
    81   41  103 1    
    82   41  104 1    
    83   41  105 1    
    84   42   43 am   BACKBONE|DICT|INTERRES
    85   42  106 1    
    86   43   44 2    
    87   43   45 1    
    88   45   46 1    
    89   45   49 1    
    90   45  107 1    
    91   46   47 1    
    92   46  108 1    
    93   46  109 1    
    94   47   48 1    
    95   48  110 1    
    96   48  111 1    
    97   49   50 am   BACKBONE|DICT|INTERRES
    98   49  112 1    
    99   50   51 2    
   100   50   52 1    
   101   52   53 1    
   102   52   54 1    
   103   52  113 1    
   104   53  114 1    
   105   53  115 1    
   106   53  116 1    
   107   54   55 am   BACKBONE|DICT|INTERRES
   108   54  117 1    
   109   55   56 2    
   110   55   57 1    
   111   57   58 1    
   112   57   59 1    
   113   57  118 1    
   114   58  119 1    
   115   58  120 1    
   116   58  121 1    
   117   59   60 am   BACKBONE|DICT|INTERRES
   118   59  122 1    
   119   60   61 2    
   120   60   62 1    
   121   62   63 1    
   122   62   64 1    
   123   62  123 1    
   124   63  124 1    
   125   63  125 1    
   126   63  126 1    
   127   64   65 am   BACKBONE|DICT|INTERRES
   128   64  127 1    
   129   65   66 2    
@<TRIPOS>SUBSTRUCTURE
     1 UNK         1 GROUP             0       ****    0 ROOT    
