@<TRIPOS>MOLECULE
3R135
127   129    1
SMALL
USER_CHARGES


@<TRIPOS>ATOM
      1 CA        -84.2433   29.2008  -75.5813 C.3       0 UNK        -0.1998 
      2 C         -82.8473   28.8999  -76.1052 C.2       0 UNK         0.4909 
      3 O         -82.5124   29.2994  -77.2207 O.2       0 UNK        -0.5240 
      4 N         -82.0305   28.1966  -75.3095 N.am      1 UNK        -0.4739 
      5 CA        -80.6481   27.8240  -75.6466 C.3       1 UNK         0.0864 
      6 C6        -79.8286   27.4453  -74.3881 C.3       11 UNK        -0.0881 
      7 S7        -79.6950   28.8539  -73.2334 S.3       11 UNK        -0.2682 
      8 C8        -78.0257   29.4769  -73.6104 C.3       11 UNK         0.0289 
      9 C9        -77.0077   29.0506  -72.5613 C.ar      11 UNK        -0.0687 
     10 C10       -76.6766   27.7026  -72.3955 C.ar      11 UNK        -0.0823 
     11 C11       -75.7358   27.3107  -71.4375 C.ar      11 UNK        -0.0830 
     12 C12       -75.1263   28.2823  -70.6373 C.ar      11 UNK        -0.1021 
     13 C13       -75.4500   29.6343  -70.7921 C.ar      11 UNK        -0.0753 
     14 C14       -76.3884   30.0109  -71.7568 C.ar      11 UNK        -0.0933 
     15 C15       -74.8214   30.6941  -69.8998 C.3       11 UNK         0.0166 
     16 S16       -73.3787   31.4758  -70.6856 S.3       11 UNK        -0.2615 
     17 C17       -72.0516   30.3108  -70.2273 C.3       11 UNK        -0.0865 
     18 CA        -70.9359   30.2175  -71.2969 C.3       10 UNK         0.0862 
     19 C         -69.7715   29.3311  -70.7717 C.2       10 UNK         0.5551 
     20 N         -68.7613   29.9335  -70.1596 N.am      10 UNK        -0.7319 
     21 O         -69.8019   28.1060  -70.8718 O.2       10 UNK        -0.5018 
     22 N         -71.4681   29.7628  -72.5904 N.am      10 UNK        -0.4509 
     23 C         -70.7599   29.6601  -73.7225 C.2       10 UNK         0.4899 
     24 O         -69.5840   30.0081  -73.8370 O.2       10 UNK        -0.4839 
     25 CA        -71.4834   29.0680  -74.9419 C.3       9 UNK         0.0222 
     26 CB        -71.3388   27.5378  -74.9532 C.3       9 UNK        -0.1966 
     27 N         -72.9029   29.4195  -75.0149 N.am      9 UNK        -0.4218 
     28 C         -73.3897   30.6376  -75.2848 C.2       9 UNK         0.5020 
     29 O         -72.6875   31.6377  -75.4450 O.2       9 UNK        -0.5274 
     30 CA        -74.9191   30.7250  -75.4677 C.3       8 UNK         0.0270 
     31 CB        -75.4220   32.1694  -75.6452 C.3       8 UNK        -0.1976 
     32 N         -75.3639   29.9136  -76.6088 N.am      8 UNK        -0.4313 
     33 C         -75.4760   28.5806  -76.5834 C.2       8 UNK         0.5041 
     34 O         -75.2836   27.9111  -75.5643 O.2       8 UNK        -0.5577 
     35 CA        -75.7958   27.8658  -77.9017 C.3       7 UNK         0.0284 
     36 CB        -74.5498   27.8429  -78.8107 C.3       7 UNK        -0.1958 
     37 N         -76.2000   26.5128  -77.5394 N.am      7 UNK        -0.4454 
     38 C         -76.6430   25.5231  -78.3200 C.2       7 UNK         0.5089 
     39 O         -76.7802   25.6212  -79.5408 O.2       7 UNK        -0.5125 
     40 CA        -77.0191   24.2037  -77.6070 C.3       6 UNK         0.0408 
     41 CB        -76.7224   22.9584  -78.4672 C.3       6 UNK        -0.1791 
     42 N         -76.4494   24.0608  -76.2573 N.am      6 UNK        -0.4762 
     43 C         -75.1499   23.9764  -75.9180 C.2       6 UNK         0.5007 
     44 O         -74.2257   23.9860  -76.7312 O.2       6 UNK        -0.5032 
     45 CA        -74.8214   23.8892  -74.4109 C.3       5 UNK         0.0783 
     46 C46       -74.4861   25.2982  -73.8680 C.3       11 UNK        -0.0857 
     47 S47       -73.9183   25.3061  -72.1344 S.3       11 UNK        -0.2512 
     48 C48       -75.4125   25.8359  -71.2325 C.3       11 UNK         0.0225 
     49 N         -75.9077   23.2622  -73.6540 N.am      5 UNK        -0.4615 
     50 C         -76.2352   21.9674  -73.7104 C.2       4 UNK         0.5053 
     51 O         -75.6033   21.1242  -74.3472 O.2       4 UNK        -0.5105 
     52 CA        -77.5063   21.5450  -72.9562 C.3       4 UNK         0.0263 
     53 CB        -77.7855   22.3817  -71.6856 C.3       4 UNK        -0.1981 
     54 N         -78.6707   21.5271  -73.8491 N.am      4 UNK        -0.4224 
     55 C         -79.2076   22.5603  -74.5161 C.2       3 UNK         0.4895 
     56 O         -78.7929   23.7227  -74.4512 O.2       3 UNK        -0.5091 
     57 CA        -80.4101   22.2251  -75.4095 C.3       3 UNK         0.0250 
     58 CB        -81.5812   21.6442  -74.5936 C.3       3 UNK        -0.1996 
     59 N         -80.8708   23.4301  -76.0951 N.am      3 UNK        -0.4254 
     60 C         -81.2402   23.5097  -77.3781 C.2       2 UNK         0.5004 
     61 O         -81.2078   22.5557  -78.1565 O.2       2 UNK        -0.5226 
     62 CA        -81.7637   24.8678  -77.8838 C.3       2 UNK         0.0269 
     63 CB        -83.2356   24.7516  -78.3170 C.3       2 UNK        -0.1926 
     64 N         -81.6564   25.9454  -76.8938 N.am      2 UNK        -0.4687 
     65 C         -80.5683   26.7051  -76.7065 C.2       1 UNK         0.5165 
     66 O         -79.5242   26.5528  -77.3362 O.2       1 UNK        -0.5079 
     67 H67       -84.9937   28.7729  -76.2454 H         1 UNK         0.0900 
     68 H68       -84.4024   30.2778  -75.5360 H         1 UNK         0.0900 
     69 H69       -84.4012   28.7929  -74.5830 H         1 UNK         0.0900 
     70 H70       -82.3466   27.9190  -74.3908 H         1 UNK         0.2959 
     71 H71       -80.1722   28.6962  -76.1014 H         1 UNK         0.1079 
     72 H72       -80.2933   26.6091  -73.8620 H         1 UNK         0.0837 
     73 H73       -78.8287   27.1036  -74.6630 H         1 UNK         0.0837 
     74 H74       -77.7029   29.1393  -74.5954 H         1 UNK         0.0685 
     75 H75       -78.0755   30.5651  -73.6712 H         1 UNK         0.0685 
     76 H76       -77.1635   26.9585  -73.0086 H         1 UNK         0.1434 
     77 H77       -74.4118   27.9808  -69.8839 H         1 UNK         0.1329 
     78 H78       -76.6395   31.0562  -71.8752 H         1 UNK         0.1335 
     79 H79       -74.5378   30.2703  -68.9351 H         1 UNK         0.0680 
     80 H80       -75.5588   31.4681  -69.6814 H         1 UNK         0.0680 
     81 H81       -72.4729   29.3218  -70.0429 H         1 UNK         0.1032 
     82 H82       -71.6392   30.6448  -69.2730 H         1 UNK         0.1032 
     83 H83       -70.5420   31.2228  -71.4601 H         1 UNK         0.0461 
     84 H84       -68.0046   29.3748  -69.7967 H         1 UNK         0.3453 
     85 H85       -68.7327   30.9369  -70.0640 H         1 UNK         0.3453 
     86 H86       -72.4304   29.4597  -72.5928 H         1 UNK         0.2984 
     87 H87       -70.9997   29.4605  -75.8388 H         1 UNK         0.0554 
     88 H88       -71.8260   27.0949  -75.8223 H         1 UNK         0.0847 
     89 H89       -71.7678   27.0875  -74.0571 H         1 UNK         0.0847 
     90 H90       -70.2878   27.2477  -74.9878 H         1 UNK         0.0847 
     91 H91       -73.5793   28.6619  -74.9538 H         1 UNK         0.3141 
     92 H92       -75.3686   30.3326  -74.5543 H         1 UNK         0.0743 
     93 H93       -75.1248   32.7910  -74.7994 H         1 UNK         0.0784 
     94 H94       -75.0199   32.6313  -76.5478 H         1 UNK         0.0784 
     95 H95       -76.5099   32.2051  -75.7045 H         1 UNK         0.0784 
     96 H96       -75.4936   30.3996  -77.4850 H         1 UNK         0.3213 
     97 H97       -76.6286   28.3681  -78.3974 H         1 UNK         0.0855 
     98 H98       -74.2073   28.8527  -79.0393 H         1 UNK         0.0814 
     99 H99       -74.7540   27.3552  -79.7635 H         1 UNK         0.0814 
    100 H100      -73.7198   27.3159  -78.3377 H         1 UNK         0.0814 
    101 H101      -76.1190   26.3453  -76.5430 H         1 UNK         0.3105 
    102 H102      -78.0992   24.2432  -77.4624 H         1 UNK         0.0547 
    103 H103      -77.2789   22.9897  -79.4046 H         1 UNK         0.0837 
    104 H104      -75.6648   22.8833  -78.7210 H         1 UNK         0.0837 
    105 H105      -77.0116   22.0426  -77.9519 H         1 UNK         0.0837 
    106 H106      -77.1361   24.0389  -75.5079 H         1 UNK         0.3020 
    107 H107      -73.9330   23.2608  -74.3133 H         1 UNK         0.1245 
    108 H108      -75.3497   25.9508  -73.9696 H         1 UNK         0.0781 
    109 H109      -73.6983   25.7552  -74.4683 H         1 UNK         0.0781 
    110 H110      -75.2590   25.6449  -70.1693 H         1 UNK         0.0836 
    111 H111      -76.2603   25.2161  -71.5240 H         1 UNK         0.0836 
    112 H112      -76.5162   23.8803  -73.1400 H         1 UNK         0.3022 
    113 H113      -77.3434   20.5146  -72.6357 H         1 UNK         0.0747 
    114 H114      -78.5977   21.9436  -71.1055 H         1 UNK         0.0793 
    115 H115      -76.9095   22.4117  -71.0361 H         1 UNK         0.0793 
    116 H116      -78.0662   23.4111  -71.9085 H         1 UNK         0.0793 
    117 H117      -79.0706   20.6118  -74.0034 H         1 UNK         0.3047 
    118 H118      -80.0743   21.4849  -76.1390 H         1 UNK         0.0822 
    119 H119      -82.4409   21.4374  -75.2315 H         1 UNK         0.0807 
    120 H120      -81.9059   22.3315  -73.8112 H         1 UNK         0.0807 
    121 H121      -81.3105   20.7040  -74.1123 H         1 UNK         0.0807 
    122 H122      -80.8415   24.2771  -75.5452 H         1 UNK         0.2946 
    123 H123      -81.1699   25.1294  -78.7631 H         1 UNK         0.1144 
    124 H124      -83.6038   25.6926  -78.7265 H         1 UNK         0.0793 
    125 H125      -83.8811   24.4714  -77.4837 H         1 UNK         0.0793 
    126 H126      -83.3582   23.9944  -79.0928 H         1 UNK         0.0793 
    127 H127      -82.4763   26.1402  -76.3370 H         1 UNK         0.2896 
@<TRIPOS>BOND
     1    1    2 1    
     2    1   67 1    
     3    1   68 1    
     4    1   69 1    
     5    2    3 2    
     6    2    4 am   BACKBONE|DICT|INTERRES
     7    4    5 1    
     8    4   70 1    
     9    5    6 1    
    10    5   65 1    
    11    5   71 1    
    12    6    7 1    
    13    6   72 1    
    14    6   73 1    
    15    7    8 1    
    16    8    9 1    
    17    8   74 1    
    18    8   75 1    
    19    9   10 ar   
    20    9   14 ar   
    21   10   11 ar   
    22   10   76 1    
    23   11   12 ar   
    24   11   48 1    
    25   12   13 ar   
    26   12   77 1    
    27   13   14 ar   
    28   13   15 1    
    29   14   78 1    
    30   15   16 1    
    31   15   79 1    
    32   15   80 1    
    33   16   17 1    
    34   17   18 1    
    35   17   81 1    
    36   17   82 1    
    37   18   19 1    
    38   18   22 1    
    39   18   83 1    
    40   19   20 am   BACKBONE|DICT|INTERRES
    41   19   21 2    
    42   20   84 1    
    43   20   85 1    
    44   22   23 am   BACKBONE|DICT|INTERRES
    45   22   86 1    
    46   23   24 2    
    47   23   25 1    
    48   25   26 1    
    49   25   27 1    
    50   25   87 1    
    51   26   88 1    
    52   26   89 1    
    53   26   90 1    
    54   27   28 am   BACKBONE|DICT|INTERRES
    55   27   91 1    
    56   28   29 2    
    57   28   30 1    
    58   30   31 1    
    59   30   32 1    
    60   30   92 1    
    61   31   93 1    
    62   31   94 1    
    63   31   95 1    
    64   32   33 am   BACKBONE|DICT|INTERRES
    65   32   96 1    
    66   33   34 2    
    67   33   35 1    
    68   35   36 1    
    69   35   37 1    
    70   35   97 1    
    71   36   98 1    
    72   36   99 1    
    73   36  100 1    
    74   37   38 am   BACKBONE|DICT|INTERRES
    75   37  101 1    
    76   38   39 2    
    77   38   40 1    
    78   40   41 1    
    79   40   42 1    
    80   40  102 1    
    81   41  103 1    
    82   41  104 1    
    83   41  105 1    
    84   42   43 am   BACKBONE|DICT|INTERRES
    85   42  106 1    
    86   43   44 2    
    87   43   45 1    
    88   45   46 1    
    89   45   49 1    
    90   45  107 1    
    91   46   47 1    
    92   46  108 1    
    93   46  109 1    
    94   47   48 1    
    95   48  110 1    
    96   48  111 1    
    97   49   50 am   BACKBONE|DICT|INTERRES
    98   49  112 1    
    99   50   51 2    
   100   50   52 1    
   101   52   53 1    
   102   52   54 1    
   103   52  113 1    
   104   53  114 1    
   105   53  115 1    
   106   53  116 1    
   107   54   55 am   BACKBONE|DICT|INTERRES
   108   54  117 1    
   109   55   56 2    
   110   55   57 1    
   111   57   58 1    
   112   57   59 1    
   113   57  118 1    
   114   58  119 1    
   115   58  120 1    
   116   58  121 1    
   117   59   60 am   BACKBONE|DICT|INTERRES
   118   59  122 1    
   119   60   61 2    
   120   60   62 1    
   121   62   63 1    
   122   62   64 1    
   123   62  123 1    
   124   63  124 1    
   125   63  125 1    
   126   63  126 1    
   127   64   65 am   BACKBONE|DICT|INTERRES
   128   64  127 1    
   129   65   66 2    
@<TRIPOS>SUBSTRUCTURE
     1 UNK         1 GROUP             0       ****    0 ROOT    
