@<TRIPOS>MOLECULE
3R135
127   129    1
SMALL
USER_CHARGES


@<TRIPOS>ATOM
      1 CA        -83.6198   24.0559  -70.1376 C.3       0 UNK        -0.1998 
      2 C         -82.4819   24.2427  -71.1299 C.2       0 UNK         0.4909 
      3 O         -82.0651   23.2752  -71.7655 O.2       0 UNK        -0.5240 
      4 N         -81.9933   25.4834  -71.2734 N.am      1 UNK        -0.4739 
      5 CA        -80.8785   25.9103  -72.1373 C.3       1 UNK         0.0864 
      6 C6        -79.5228   25.2303  -71.7847 C.3       11 UNK        -0.0881 
      7 S7        -78.8353   25.8072  -70.1963 S.3       11 UNK        -0.2682 
      8 C8        -77.1065   26.1831  -70.6608 C.3       11 UNK         0.0289 
      9 C9        -76.8818   27.6198  -71.1313 C.ar      11 UNK        -0.0687 
     10 C10       -77.7264   28.2259  -72.0672 C.ar      11 UNK        -0.0823 
     11 C11       -77.4931   29.5321  -72.5125 C.ar      11 UNK        -0.0830 
     12 C12       -76.4035   30.2415  -71.9998 C.ar      11 UNK        -0.1021 
     13 C13       -75.5414   29.6479  -71.0742 C.ar      11 UNK        -0.0753 
     14 C14       -75.7867   28.3403  -70.6448 C.ar      11 UNK        -0.0933 
     15 C15       -74.3500   30.4166  -70.5238 C.3       11 UNK         0.0166 
     16 S16       -72.8764   30.2119  -71.5730 S.3       11 UNK        -0.2615 
     17 C17       -73.0769   31.5516  -72.8014 C.3       11 UNK        -0.0865 
     18 CA        -73.5796   31.0675  -74.1936 C.3       10 UNK         0.0862 
     19 C         -73.8553   32.2460  -75.1747 C.2       10 UNK         0.5551 
     20 N         -73.6360   32.0884  -76.4746 N.am      10 UNK        -0.7319 
     21 O         -74.3070   33.3103  -74.7592 O.2       10 UNK        -0.5018 
     22 N         -72.7853   29.9713  -74.7708 N.am      10 UNK        -0.4509 
     23 C         -71.4761   29.9679  -75.0531 C.2       10 UNK         0.4899 
     24 O         -70.7206   30.9206  -74.8550 O.2       10 UNK        -0.4839 
     25 CA        -70.9375   28.6688  -75.6863 C.3       9 UNK         0.0222 
     26 CB        -69.3979   28.5614  -75.6577 C.3       9 UNK        -0.1966 
     27 N         -71.5797   27.4746  -75.1225 N.am      9 UNK        -0.4218 
     28 C         -71.4870   27.0025  -73.8691 C.2       9 UNK         0.5020 
     29 O         -70.7155   27.4435  -73.0166 O.2       9 UNK        -0.5274 
     30 CA        -72.4319   25.8459  -73.4868 C.3       8 UNK         0.0270 
     31 CB        -73.6139   26.3810  -72.6610 C.3       8 UNK        -0.1976 
     32 N         -72.9561   25.1036  -74.6369 N.am      8 UNK        -0.4313 
     33 C         -72.2345   24.2946  -75.4251 C.2       8 UNK         0.5041 
     34 O         -71.0466   24.0308  -75.2360 O.2       8 UNK        -0.5577 
     35 CA        -72.9541   23.7069  -76.6499 C.3       7 UNK         0.0284 
     36 CB        -73.7556   22.4511  -76.2686 C.3       7 UNK        -0.1958 
     37 N         -73.8381   24.6873  -77.2859 N.am      7 UNK        -0.4454 
     38 C         -73.4155   25.7192  -78.0301 C.2       7 UNK         0.5089 
     39 O         -72.2343   25.9288  -78.3042 O.2       7 UNK        -0.5125 
     40 CA        -74.4888   26.7005  -78.5324 C.3       6 UNK         0.0408 
     41 CB        -75.0717   26.2232  -79.8712 C.3       6 UNK        -0.1791 
     42 N         -75.5745   26.9020  -77.5697 N.am      6 UNK        -0.4762 
     43 C         -75.4332   27.5333  -76.3925 C.2       6 UNK         0.5007 
     44 O         -74.3740   28.0264  -76.0084 O.2       6 UNK        -0.5032 
     45 CA        -76.6697   27.5922  -75.4708 C.3       5 UNK         0.0783 
     46 C46       -77.4957   28.8537  -75.8366 C.3       11 UNK        -0.0857 
     47 S47       -79.0036   29.0911  -74.8449 S.3       11 UNK        -0.2512 
     48 C48       -78.4280   30.2022  -73.5162 C.3       11 UNK         0.0225 
     49 N         -77.4467   26.3423  -75.5045 N.am      5 UNK        -0.4615 
     50 C         -76.9383   25.1172  -75.2941 C.2       4 UNK         0.5053 
     51 O         -75.7942   24.9291  -74.8804 O.2       4 UNK        -0.5105 
     52 CA        -77.7795   23.8860  -75.6847 C.3       4 UNK         0.0263 
     53 CB        -78.1869   23.0587  -74.4564 C.3       4 UNK        -0.1981 
     54 N         -78.9679   24.1652  -76.4929 N.am      4 UNK        -0.4224 
     55 C         -79.0012   24.7079  -77.7159 C.2       3 UNK         0.4895 
     56 O         -77.9918   25.0568  -78.3305 O.2       3 UNK        -0.5091 
     57 CA        -80.3890   24.9417  -78.3486 C.3       3 UNK         0.0250 
     58 CB        -80.8368   23.7173  -79.1703 C.3       3 UNK        -0.1996 
     59 N         -81.4307   25.3767  -77.3996 N.am      3 UNK        -0.4254 
     60 C         -81.9861   24.6959  -76.3845 C.2       2 UNK         0.5004 
     61 O         -81.7468   23.5139  -76.1287 O.2       2 UNK        -0.5226 
     62 CA        -82.9055   25.4985  -75.4440 C.3       2 UNK         0.0269 
     63 CB        -84.3353   24.9332  -75.4668 C.3       2 UNK        -0.1926 
     64 N         -82.4211   25.5286  -74.0557 N.am      2 UNK        -0.4687 
     65 C         -81.1805   25.8530  -73.6549 C.2       1 UNK         0.5165 
     66 O         -80.2828   26.1527  -74.4404 O.2       1 UNK        -0.5079 
     67 H67       -83.8977   24.9916  -69.6530 H         1 UNK         0.0900 
     68 H68       -84.5000   23.6619  -70.6449 H         1 UNK         0.0900 
     69 H69       -83.3277   23.3475  -69.3628 H         1 UNK         0.0900 
     70 H70       -82.4014   26.2263  -70.7221 H         1 UNK         0.2959 
     71 H71       -80.7653   26.9778  -71.9420 H         1 UNK         0.1079 
     72 H72       -78.7774   25.4154  -72.5590 H         1 UNK         0.0837 
     73 H73       -79.6251   24.1460  -71.7395 H         1 UNK         0.0837 
     74 H74       -76.7630   25.4931  -71.4329 H         1 UNK         0.0685 
     75 H75       -76.4873   25.9811  -69.7855 H         1 UNK         0.0685 
     76 H76       -78.5686   27.6815  -72.4622 H         1 UNK         0.1434 
     77 H77       -76.2212   31.2574  -72.3225 H         1 UNK         0.1329 
     78 H78       -75.1155   27.8815  -69.9316 H         1 UNK         0.1335 
     79 H79       -74.5947   31.4731  -70.4059 H         1 UNK         0.0680 
     80 H80       -74.1113   30.0542  -69.5227 H         1 UNK         0.0680 
     81 H81       -72.1157   32.0568  -72.9055 H         1 UNK         0.1032 
     82 H82       -73.7541   32.3040  -72.3947 H         1 UNK         0.1032 
     83 H83       -74.5618   30.6231  -74.0383 H         1 UNK         0.0461 
     84 H84       -73.8262   32.8511  -77.1053 H         1 UNK         0.3453 
     85 H85       -73.2811   31.2144  -76.8274 H         1 UNK         0.3453 
     86 H86       -73.3270   29.1580  -75.0549 H         1 UNK         0.2984 
     87 H87       -71.2409   28.6976  -76.7338 H         1 UNK         0.0554 
     88 H88       -69.0570   27.6267  -76.1027 H         1 UNK         0.0847 
     89 H89       -69.0041   28.6146  -74.6425 H         1 UNK         0.0847 
     90 H90       -68.9413   29.3749  -76.2226 H         1 UNK         0.0847 
     91 H91       -72.2844   27.0517  -75.7124 H         1 UNK         0.3141 
     92 H92       -71.8651   25.1497  -72.8652 H         1 UNK         0.0743 
     93 H93       -73.2629   26.8939  -71.7644 H         1 UNK         0.0784 
     94 H94       -74.2735   25.5756  -72.3380 H         1 UNK         0.0784 
     95 H95       -74.2111   27.0967  -73.2273 H         1 UNK         0.0784 
     96 H96       -73.9548   25.1891  -74.8192 H         1 UNK         0.3213 
     97 H97       -72.1913   23.4131  -77.3747 H         1 UNK         0.0855 
     98 H98       -74.5296   22.6662  -75.5315 H         1 UNK         0.0814 
     99 H99       -73.1018   21.6915  -75.8378 H         1 UNK         0.0814 
    100 H100      -74.2359   22.0066  -77.1403 H         1 UNK         0.0814 
    101 H101      -74.8232   24.6222  -77.0741 H         1 UNK         0.3105 
    102 H102      -74.0041   27.6650  -78.6989 H         1 UNK         0.0547 
    103 H103      -74.2851   26.0966  -80.6164 H         1 UNK         0.0837 
    104 H104      -75.5838   25.2652  -79.7715 H         1 UNK         0.0837 
    105 H105      -75.7849   26.9430  -80.2729 H         1 UNK         0.0837 
    106 H106      -76.4714   26.4855  -77.7990 H         1 UNK         0.3020 
    107 H107      -76.2972   27.7060  -74.4516 H         1 UNK         0.1245 
    108 H108      -76.8798   29.7514  -75.7482 H         1 UNK         0.0781 
    109 H109      -77.8087   28.8090  -76.8818 H         1 UNK         0.0781 
    110 H110      -79.2996   30.5726  -72.9753 H         1 UNK         0.0836 
    111 H111      -77.9534   31.0754  -73.9669 H         1 UNK         0.0836 
    112 H112      -78.4305   26.4243  -75.7287 H         1 UNK         0.3022 
    113 H113      -77.1217   23.2635  -76.2944 H         1 UNK         0.0747 
    114 H114      -78.4804   22.0500  -74.7471 H         1 UNK         0.0793 
    115 H115      -79.0326   23.5047  -73.9369 H         1 UNK         0.0793 
    116 H116      -77.3668   22.9628  -73.7430 H         1 UNK         0.0793 
    117 H117      -79.8643   23.9140  -76.0855 H         1 UNK         0.3047 
    118 H118      -80.2675   25.7720  -79.0462 H         1 UNK         0.0822 
    119 H119      -81.7883   23.9009  -79.6693 H         1 UNK         0.0807 
    120 H120      -80.9481   22.8260  -78.5523 H         1 UNK         0.0807 
    121 H121      -80.1050   23.4823  -79.9443 H         1 UNK         0.0807 
    122 H122      -81.6763   26.3540  -77.4812 H         1 UNK         0.2946 
    123 H123      -82.9436   26.5331  -75.7914 H         1 UNK         0.1144 
    124 H124      -84.7294   24.9078  -76.4837 H         1 UNK         0.0793 
    125 H125      -85.0152   25.5439  -74.8724 H         1 UNK         0.0793 
    126 H126      -84.3707   23.9145  -75.0780 H         1 UNK         0.0793 
    127 H127      -83.0839   25.2677  -73.3410 H         1 UNK         0.2896 
@<TRIPOS>BOND
     1    1    2 1    
     2    1   67 1    
     3    1   68 1    
     4    1   69 1    
     5    2    3 2    
     6    2    4 am   BACKBONE|DICT|INTERRES
     7    4    5 1    
     8    4   70 1    
     9    5    6 1    
    10    5   65 1    
    11    5   71 1    
    12    6    7 1    
    13    6   72 1    
    14    6   73 1    
    15    7    8 1    
    16    8    9 1    
    17    8   74 1    
    18    8   75 1    
    19    9   10 ar   
    20    9   14 ar   
    21   10   11 ar   
    22   10   76 1    
    23   11   12 ar   
    24   11   48 1    
    25   12   13 ar   
    26   12   77 1    
    27   13   14 ar   
    28   13   15 1    
    29   14   78 1    
    30   15   16 1    
    31   15   79 1    
    32   15   80 1    
    33   16   17 1    
    34   17   18 1    
    35   17   81 1    
    36   17   82 1    
    37   18   19 1    
    38   18   22 1    
    39   18   83 1    
    40   19   20 am   BACKBONE|DICT|INTERRES
    41   19   21 2    
    42   20   84 1    
    43   20   85 1    
    44   22   23 am   BACKBONE|DICT|INTERRES
    45   22   86 1    
    46   23   24 2    
    47   23   25 1    
    48   25   26 1    
    49   25   27 1    
    50   25   87 1    
    51   26   88 1    
    52   26   89 1    
    53   26   90 1    
    54   27   28 am   BACKBONE|DICT|INTERRES
    55   27   91 1    
    56   28   29 2    
    57   28   30 1    
    58   30   31 1    
    59   30   32 1    
    60   30   92 1    
    61   31   93 1    
    62   31   94 1    
    63   31   95 1    
    64   32   33 am   BACKBONE|DICT|INTERRES
    65   32   96 1    
    66   33   34 2    
    67   33   35 1    
    68   35   36 1    
    69   35   37 1    
    70   35   97 1    
    71   36   98 1    
    72   36   99 1    
    73   36  100 1    
    74   37   38 am   BACKBONE|DICT|INTERRES
    75   37  101 1    
    76   38   39 2    
    77   38   40 1    
    78   40   41 1    
    79   40   42 1    
    80   40  102 1    
    81   41  103 1    
    82   41  104 1    
    83   41  105 1    
    84   42   43 am   BACKBONE|DICT|INTERRES
    85   42  106 1    
    86   43   44 2    
    87   43   45 1    
    88   45   46 1    
    89   45   49 1    
    90   45  107 1    
    91   46   47 1    
    92   46  108 1    
    93   46  109 1    
    94   47   48 1    
    95   48  110 1    
    96   48  111 1    
    97   49   50 am   BACKBONE|DICT|INTERRES
    98   49  112 1    
    99   50   51 2    
   100   50   52 1    
   101   52   53 1    
   102   52   54 1    
   103   52  113 1    
   104   53  114 1    
   105   53  115 1    
   106   53  116 1    
   107   54   55 am   BACKBONE|DICT|INTERRES
   108   54  117 1    
   109   55   56 2    
   110   55   57 1    
   111   57   58 1    
   112   57   59 1    
   113   57  118 1    
   114   58  119 1    
   115   58  120 1    
   116   58  121 1    
   117   59   60 am   BACKBONE|DICT|INTERRES
   118   59  122 1    
   119   60   61 2    
   120   60   62 1    
   121   62   63 1    
   122   62   64 1    
   123   62  123 1    
   124   63  124 1    
   125   63  125 1    
   126   63  126 1    
   127   64   65 am   BACKBONE|DICT|INTERRES
   128   64  127 1    
   129   65   66 2    
@<TRIPOS>SUBSTRUCTURE
     1 UNK         1 GROUP             0       ****    0 ROOT    
