@<TRIPOS>MOLECULE
3R135
127   129    1
SMALL
USER_CHARGES


@<TRIPOS>ATOM
      1 CA        -82.1548   23.0371  -69.5791 C.3       0 UNK        -0.1998 
      2 C         -81.5302   23.9174  -70.6520 C.2       0 UNK         0.4909 
      3 O         -80.3295   23.8065  -70.8934 O.2       0 UNK        -0.5240 
      4 N         -82.3453   24.7857  -71.2680 N.am      1 UNK        -0.4739 
      5 CA        -82.0427   25.7120  -72.3713 C.3       1 UNK         0.0864 
      6 C6        -80.7918   26.6093  -72.1654 C.3       11 UNK        -0.0881 
      7 S7        -80.9279   27.6617  -70.6802 S.3       11 UNK        -0.2682 
      8 C8        -79.1701   27.8632  -70.2148 C.3       11 UNK         0.0289 
      9 C9        -78.3064   28.6861  -71.1774 C.ar      11 UNK        -0.0687 
     10 C10       -78.8466   29.4466  -72.2236 C.ar      11 UNK        -0.0823 
     11 C11       -78.0185   30.1626  -73.0910 C.ar      11 UNK        -0.0830 
     12 C12       -76.6368   30.1496  -72.8909 C.ar      11 UNK        -0.1021 
     13 C13       -76.0796   29.4107  -71.8452 C.ar      11 UNK        -0.0753 
     14 C14       -76.9183   28.6815  -70.9957 C.ar      11 UNK        -0.0933 
     15 C15       -74.5699   29.3690  -71.6681 C.3       11 UNK         0.0166 
     16 S16       -73.8768   31.0111  -71.2993 S.3       11 UNK        -0.2615 
     17 C17       -72.0954   30.6211  -71.2225 C.3       11 UNK        -0.0865 
     18 CA        -71.3272   30.9646  -72.5276 C.3       10 UNK         0.0862 
     19 C         -69.7967   30.7649  -72.3124 C.2       10 UNK         0.5551 
     20 N         -69.1679   29.7441  -72.8852 N.am      10 UNK        -0.7319 
     21 O         -69.1715   31.5543  -71.6088 O.2       10 UNK        -0.5018 
     22 N         -71.8722   30.2419  -73.6879 N.am      10 UNK        -0.4509 
     23 C         -71.5696   30.4855  -74.9696 C.2       10 UNK         0.4899 
     24 O         -70.9154   31.4621  -75.3385 O.2       10 UNK        -0.4839 
     25 CA        -72.0729   29.4641  -76.0153 C.3       9 UNK         0.0222 
     26 CB        -71.0913   29.3075  -77.1950 C.3       9 UNK        -0.1966 
     27 N         -72.4224   28.1412  -75.4715 N.am      9 UNK        -0.4218 
     28 C         -71.6287   27.3106  -74.7743 C.2       9 UNK         0.5020 
     29 O         -70.4673   27.5737  -74.4576 O.2       9 UNK        -0.5274 
     30 CA        -72.2424   25.9811  -74.3117 C.3       8 UNK         0.0270 
     31 CB        -73.0822   26.1825  -73.0403 C.3       8 UNK        -0.1976 
     32 N         -73.0529   25.3370  -75.3472 N.am      8 UNK        -0.4313 
     33 C         -72.5336   24.6749  -76.3916 C.2       8 UNK         0.5041 
     34 O         -71.3243   24.5428  -76.5865 O.2       8 UNK        -0.5577 
     35 CA        -73.5222   24.0380  -77.3825 C.3       7 UNK         0.0284 
     36 CB        -74.1281   22.7526  -76.7978 C.3       7 UNK        -0.1958 
     37 N         -74.5891   24.9528  -77.7903 N.am      7 UNK        -0.4454 
     38 C         -74.3975   26.0472  -78.5408 C.2       7 UNK         0.5089 
     39 O         -73.3059   26.3886  -78.9967 O.2       7 UNK        -0.5125 
     40 CA        -75.6332   26.9150  -78.8302 C.3       6 UNK         0.0408 
     41 CB        -76.3968   26.3823  -80.0530 C.3       6 UNK        -0.1791 
     42 N         -76.5444   27.0111  -77.6893 N.am      6 UNK        -0.4762 
     43 C         -76.2502   27.6103  -76.5261 C.2       6 UNK         0.5007 
     44 O         -75.1654   28.1360  -76.2750 O.2       6 UNK        -0.5032 
     45 CA        -77.3413   27.5546  -75.4394 C.3       5 UNK         0.0783 
     46 C46       -78.5314   28.5012  -75.7557 C.3       11 UNK        -0.0857 
     47 S47       -78.0639   30.2665  -75.8656 S.3       11 UNK        -0.2512 
     48 C48       -78.6180   30.9283  -74.2609 C.3       11 UNK         0.0225 
     49 N         -77.7859   26.1733  -75.2264 N.am      5 UNK        -0.4615 
     50 C         -76.9902   25.1729  -74.8110 C.2       4 UNK         0.5053 
     51 O         -75.8104   25.3237  -74.4979 O.2       4 UNK        -0.5105 
     52 CA        -77.5763   23.7503  -74.7912 C.3       4 UNK         0.0263 
     53 CB        -78.1155   23.4141  -73.3963 C.3       4 UNK        -0.1981 
     54 N         -78.6216   23.5394  -75.7934 N.am      4 UNK        -0.4224 
     55 C         -78.4288   23.6343  -77.1180 C.2       3 UNK         0.4895 
     56 O         -77.3264   23.8290  -77.6323 O.2       3 UNK        -0.5091 
     57 CA        -79.6704   23.5521  -78.0253 C.3       3 UNK         0.0250 
     58 CB        -79.7870   22.1497  -78.6430 C.3       3 UNK        -0.1996 
     59 N         -80.9399   23.9011  -77.3733 N.am      3 UNK        -0.4254 
     60 C         -81.2163   25.0643  -76.7650 C.2       2 UNK         0.5004 
     61 O         -80.4000   25.9797  -76.6452 O.2       2 UNK        -0.5226 
     62 CA        -82.6239   25.2446  -76.1650 C.3       2 UNK         0.0269 
     63 CB        -83.5550   24.0194  -76.3256 C.3       2 UNK        -0.1926 
     64 N         -82.5563   25.6696  -74.7605 N.am      2 UNK        -0.4687 
     65 C         -82.0039   24.9965  -73.7387 C.2       1 UNK         0.5165 
     66 O         -81.4839   23.8845  -73.8566 O.2       1 UNK        -0.5079 
     67 H67       -82.0389   21.9863  -69.8433 H         1 UNK         0.0900 
     68 H68       -81.6601   23.2046  -68.6227 H         1 UNK         0.0900 
     69 H69       -83.2180   23.2389  -69.4502 H         1 UNK         0.0900 
     70 H70       -83.3175   24.7876  -70.9925 H         1 UNK         0.2959 
     71 H71       -82.9061   26.3792  -72.4009 H         1 UNK         0.1079 
     72 H72       -79.8824   26.0109  -72.1075 H         1 UNK         0.0837 
     73 H73       -80.6556   27.2674  -73.0251 H         1 UNK         0.0837 
     74 H74       -79.1344   28.3396  -69.2343 H         1 UNK         0.0685 
     75 H75       -78.7317   26.8716  -70.0905 H         1 UNK         0.0685 
     76 H76       -79.9142   29.4809  -72.3821 H         1 UNK         0.1434 
     77 H77       -75.9917   30.6996  -73.5631 H         1 UNK         0.1329 
     78 H78       -76.4888   28.1003  -70.1909 H         1 UNK         0.1335 
     79 H79       -74.2904   28.6722  -70.8761 H         1 UNK         0.0680 
     80 H80       -74.1269   28.9944  -72.5895 H         1 UNK         0.0680 
     81 H81       -71.6834   31.1891  -70.3857 H         1 UNK         0.1032 
     82 H82       -71.9580   29.5703  -70.9599 H         1 UNK         0.1032 
     83 H83       -71.4697   32.0292  -72.7232 H         1 UNK         0.0461 
     84 H84       -69.6708   29.0747  -73.4600 H         1 UNK         0.3453 
     85 H85       -68.1780   29.6306  -72.7372 H         1 UNK         0.3453 
     86 H86       -72.4119   29.4171  -73.4831 H         1 UNK         0.2984 
     87 H87       -73.0005   29.8783  -76.4124 H         1 UNK         0.0554 
     88 H88       -70.9308   30.2581  -77.7049 H         1 UNK         0.0847 
     89 H89       -71.4740   28.6055  -77.9364 H         1 UNK         0.0847 
     90 H90       -70.1171   28.9466  -76.8633 H         1 UNK         0.0847 
     91 H91       -73.3803   27.8553  -75.6653 H         1 UNK         0.3141 
     92 H92       -71.4168   25.3126  -74.0572 H         1 UNK         0.0743 
     93 H93       -73.9718   26.7808  -73.2355 H         1 UNK         0.0784 
     94 H94       -73.4131   25.2269  -72.6331 H         1 UNK         0.0784 
     95 H95       -72.5069   26.6850  -72.2614 H         1 UNK         0.0784 
     96 H96       -74.0634   25.3721  -75.2257 H         1 UNK         0.3213 
     97 H97       -72.9630   23.7652  -78.2803 H         1 UNK         0.0855 
     98 H98       -74.6509   22.9436  -75.8616 H         1 UNK         0.0814 
     99 H99       -73.3493   22.0182  -76.5885 H         1 UNK         0.0814 
    100 H100      -74.8328   22.2912  -77.4901 H         1 UNK         0.0814 
    101 H101      -75.5389   24.7093  -77.5242 H         1 UNK         0.3105 
    102 H102      -75.2829   27.9234  -79.0609 H         1 UNK         0.0547 
    103 H103      -75.7435   26.3258  -80.9249 H         1 UNK         0.0837 
    104 H104      -76.7938   25.3814  -79.8792 H         1 UNK         0.0837 
    105 H105      -77.2301   27.0337  -80.3163 H         1 UNK         0.0837 
    106 H106      -77.4424   26.5583  -77.7832 H         1 UNK         0.3020 
    107 H107      -76.8803   27.8827  -74.5061 H         1 UNK         0.1245 
    108 H108      -79.3109   28.3855  -75.0015 H         1 UNK         0.0781 
    109 H109      -78.9985   28.2247  -76.7022 H         1 UNK         0.0781 
    110 H110      -79.7085   30.9082  -74.2274 H         1 UNK         0.0836 
    111 H111      -78.3280   31.9774  -74.1896 H         1 UNK         0.0836 
    112 H112      -78.7318   25.9595  -75.5270 H         1 UNK         0.3022 
    113 H113      -76.7678   23.0532  -75.0129 H         1 UNK         0.0747 
    114 H114      -78.4997   22.3952  -73.3477 H         1 UNK         0.0793 
    115 H115      -77.3334   23.5041  -72.6412 H         1 UNK         0.0793 
    116 H116      -78.9205   24.0889  -73.1102 H         1 UNK         0.0793 
    117 H117      -79.5624   23.3999  -75.4485 H         1 UNK         0.3047 
    118 H118      -79.5165   24.2694  -78.8341 H         1 UNK         0.0822 
    119 H119      -80.5920   22.1033  -79.3768 H         1 UNK         0.0807 
    120 H120      -79.9773   21.3892  -77.8846 H         1 UNK         0.0807 
    121 H121      -78.8663   21.8722  -79.1587 H         1 UNK         0.0807 
    122 H122      -81.6661   23.2000  -77.4024 H         1 UNK         0.2946 
    123 H123      -83.0731   26.0716  -76.7177 H         1 UNK         0.1144 
    124 H124      -84.5401   24.2230  -75.9056 H         1 UNK         0.0793 
    125 H125      -83.1651   23.1317  -75.8261 H         1 UNK         0.0793 
    126 H126      -83.7079   23.7721  -77.3770 H         1 UNK         0.0793 
    127 H127      -82.9258   26.5928  -74.5789 H         1 UNK         0.2896 
@<TRIPOS>BOND
     1    1    2 1    
     2    1   67 1    
     3    1   68 1    
     4    1   69 1    
     5    2    3 2    
     6    2    4 am   BACKBONE|DICT|INTERRES
     7    4    5 1    
     8    4   70 1    
     9    5    6 1    
    10    5   65 1    
    11    5   71 1    
    12    6    7 1    
    13    6   72 1    
    14    6   73 1    
    15    7    8 1    
    16    8    9 1    
    17    8   74 1    
    18    8   75 1    
    19    9   10 ar   
    20    9   14 ar   
    21   10   11 ar   
    22   10   76 1    
    23   11   12 ar   
    24   11   48 1    
    25   12   13 ar   
    26   12   77 1    
    27   13   14 ar   
    28   13   15 1    
    29   14   78 1    
    30   15   16 1    
    31   15   79 1    
    32   15   80 1    
    33   16   17 1    
    34   17   18 1    
    35   17   81 1    
    36   17   82 1    
    37   18   19 1    
    38   18   22 1    
    39   18   83 1    
    40   19   20 am   BACKBONE|DICT|INTERRES
    41   19   21 2    
    42   20   84 1    
    43   20   85 1    
    44   22   23 am   BACKBONE|DICT|INTERRES
    45   22   86 1    
    46   23   24 2    
    47   23   25 1    
    48   25   26 1    
    49   25   27 1    
    50   25   87 1    
    51   26   88 1    
    52   26   89 1    
    53   26   90 1    
    54   27   28 am   BACKBONE|DICT|INTERRES
    55   27   91 1    
    56   28   29 2    
    57   28   30 1    
    58   30   31 1    
    59   30   32 1    
    60   30   92 1    
    61   31   93 1    
    62   31   94 1    
    63   31   95 1    
    64   32   33 am   BACKBONE|DICT|INTERRES
    65   32   96 1    
    66   33   34 2    
    67   33   35 1    
    68   35   36 1    
    69   35   37 1    
    70   35   97 1    
    71   36   98 1    
    72   36   99 1    
    73   36  100 1    
    74   37   38 am   BACKBONE|DICT|INTERRES
    75   37  101 1    
    76   38   39 2    
    77   38   40 1    
    78   40   41 1    
    79   40   42 1    
    80   40  102 1    
    81   41  103 1    
    82   41  104 1    
    83   41  105 1    
    84   42   43 am   BACKBONE|DICT|INTERRES
    85   42  106 1    
    86   43   44 2    
    87   43   45 1    
    88   45   46 1    
    89   45   49 1    
    90   45  107 1    
    91   46   47 1    
    92   46  108 1    
    93   46  109 1    
    94   47   48 1    
    95   48  110 1    
    96   48  111 1    
    97   49   50 am   BACKBONE|DICT|INTERRES
    98   49  112 1    
    99   50   51 2    
   100   50   52 1    
   101   52   53 1    
   102   52   54 1    
   103   52  113 1    
   104   53  114 1    
   105   53  115 1    
   106   53  116 1    
   107   54   55 am   BACKBONE|DICT|INTERRES
   108   54  117 1    
   109   55   56 2    
   110   55   57 1    
   111   57   58 1    
   112   57   59 1    
   113   57  118 1    
   114   58  119 1    
   115   58  120 1    
   116   58  121 1    
   117   59   60 am   BACKBONE|DICT|INTERRES
   118   59  122 1    
   119   60   61 2    
   120   60   62 1    
   121   62   63 1    
   122   62   64 1    
   123   62  123 1    
   124   63  124 1    
   125   63  125 1    
   126   63  126 1    
   127   64   65 am   BACKBONE|DICT|INTERRES
   128   64  127 1    
   129   65   66 2    
@<TRIPOS>SUBSTRUCTURE
     1 UNK         1 GROUP             0       ****    0 ROOT    
