@<TRIPOS>MOLECULE
3R135
127   129    1
SMALL
USER_CHARGES


@<TRIPOS>ATOM
      1 CA        -78.6541   30.5822  -76.1163 C.3       0 UNK        -0.1998 
      2 C         -78.9408   29.5179  -75.0690 C.2       0 UNK         0.4909 
      3 O         -78.1151   28.6336  -74.8545 O.2       0 UNK        -0.5240 
      4 N         -80.1068   29.5981  -74.4165 N.am      1 UNK        -0.4739 
      5 CA        -80.5760   28.6053  -73.4472 C.3       1 UNK         0.0864 
      6 C6        -81.6888   29.1968  -72.5449 C.3       11 UNK        -0.0881 
      7 S7        -82.0160   28.1870  -71.0586 S.3       11 UNK        -0.2682 
      8 C8        -81.0453   29.0566  -69.7863 C.3       11 UNK         0.0289 
      9 C9        -79.5530   29.0147  -70.0816 C.ar      11 UNK        -0.0687 
     10 C10       -78.8489   27.8124  -69.9736 C.ar      11 UNK        -0.0823 
     11 C11       -77.4824   27.7602  -70.2641 C.ar      11 UNK        -0.0830 
     12 C12       -76.8125   28.9314  -70.6364 C.ar      11 UNK        -0.1021 
     13 C13       -77.5036   30.1439  -70.7317 C.ar      11 UNK        -0.0753 
     14 C14       -78.8752   30.1761  -70.4626 C.ar      11 UNK        -0.0933 
     15 C15       -76.7731   31.4309  -71.0884 C.3       11 UNK         0.0166 
     16 S16       -76.5494   31.6232  -72.8851 S.3       11 UNK        -0.2615 
     17 C17       -74.8625   30.9669  -73.1381 C.3       11 UNK        -0.0865 
     18 CA        -74.7612   29.9392  -74.3065 C.3       10 UNK         0.0862 
     19 C         -74.7240   30.5570  -75.7376 C.2       10 UNK         0.5551 
     20 N         -75.2217   31.7704  -75.9302 N.am      10 UNK        -0.7319 
     21 O         -74.2912   29.9194  -76.6962 O.2       10 UNK        -0.5018 
     22 N         -73.6862   28.9591  -74.0956 N.am      10 UNK        -0.4509 
     23 C         -72.3864   29.2331  -73.9211 C.2       10 UNK         0.4899 
     24 O         -71.9187   30.3710  -73.8813 O.2       10 UNK        -0.4839 
     25 CA        -71.4461   28.0339  -73.7498 C.3       9 UNK         0.0222 
     26 CB        -71.6067   27.3971  -72.3569 C.3       9 UNK        -0.1966 
     27 N         -71.6667   27.0357  -74.7947 N.am      9 UNK        -0.4218 
     28 C         -70.7341   26.2068  -75.2794 C.2       9 UNK         0.5020 
     29 O         -69.5728   26.1595  -74.8705 O.2       9 UNK        -0.5274 
     30 CA        -71.1655   25.2770  -76.4273 C.3       8 UNK         0.0270 
     31 CB        -71.8215   24.0013  -75.8749 C.3       8 UNK        -0.1976 
     32 N         -72.0816   25.9279  -77.3658 N.am      8 UNK        -0.4313 
     33 C         -71.7588   26.9324  -78.1905 C.2       8 UNK         0.5041 
     34 O         -70.6140   27.3714  -78.3086 O.2       8 UNK        -0.5577 
     35 CA        -72.8893   27.5840  -79.0091 C.3       7 UNK         0.0284 
     36 CB        -72.9753   26.9846  -80.4269 C.3       7 UNK        -0.1958 
     37 N         -74.1967   27.5985  -78.3366 N.am      7 UNK        -0.4454 
     38 C         -75.0182   26.5751  -78.0703 C.2       7 UNK         0.5089 
     39 O         -74.7889   25.4049  -78.3806 O.2       7 UNK        -0.5125 
     40 CA        -76.2896   26.9168  -77.2777 C.3       6 UNK         0.0408 
     41 CB        -77.5401   26.7571  -78.1556 C.3       6 UNK        -0.1791 
     42 N         -76.4471   26.1002  -76.0740 N.am      6 UNK        -0.4762 
     43 C         -75.5501   25.9618  -75.0877 C.2       6 UNK         0.5007 
     44 O         -74.4237   26.4595  -75.0982 O.2       6 UNK        -0.5032 
     45 CA        -75.9959   25.1543  -73.8612 C.3       5 UNK         0.0783 
     46 C46       -76.8881   26.0383  -72.9576 C.3       11 UNK        -0.0857 
     47 S47       -77.3323   25.2228  -71.3903 S.3       11 UNK        -0.2512 
     48 C48       -76.7335   26.4365  -70.1685 C.3       11 UNK         0.0225 
     49 N         -76.6659   23.9237  -74.2858 N.am      5 UNK        -0.4615 
     50 C         -76.0430   22.7635  -74.5293 C.2       4 UNK         0.5053 
     51 O         -74.8320   22.5985  -74.3835 O.2       4 UNK        -0.5105 
     52 CA        -76.9041   21.5712  -74.9898 C.3       4 UNK         0.0263 
     53 CB        -77.1918   20.6354  -73.8042 C.3       4 UNK        -0.1981 
     54 N         -78.1751   21.9753  -75.5940 N.am      4 UNK        -0.4224 
     55 C         -78.3135   22.4476  -76.8412 C.2       3 UNK         0.4895 
     56 O         -77.3981   22.4942  -77.6622 O.2       3 UNK        -0.5091 
     57 CA        -79.7068   22.9807  -77.2341 C.3       3 UNK         0.0250 
     58 CB        -80.5095   21.8961  -77.9706 C.3       3 UNK        -0.1996 
     59 N         -80.4996   23.4906  -76.1053 N.am      3 UNK        -0.4254 
     60 C         -80.1241   24.5033  -75.3121 C.2       2 UNK         0.5004 
     61 O         -79.0542   25.0998  -75.4428 O.2       2 UNK        -0.5226 
     62 CA        -81.0522   24.8419  -74.1336 C.3       2 UNK         0.0269 
     63 CB        -80.8941   23.7977  -73.0151 C.3       2 UNK        -0.1926 
     64 N         -80.7607   26.1629  -73.5738 N.am      2 UNK        -0.4687 
     65 C         -81.0396   27.3257  -74.1758 C.2       1 UNK         0.5165 
     66 O         -81.6640   27.4153  -75.2373 O.2       1 UNK        -0.5079 
     67 H67       -78.1061   30.1510  -76.9538 H         1 UNK         0.0900 
     68 H68       -78.0477   31.3768  -75.6842 H         1 UNK         0.0900 
     69 H69       -79.5724   31.0226  -76.5040 H         1 UNK         0.0900 
     70 H70       -80.7632   30.3267  -74.6563 H         1 UNK         0.2959 
     71 H71       -79.7212   28.3465  -72.8176 H         1 UNK         0.1079 
     72 H72       -81.4133   30.2021  -72.2220 H         1 UNK         0.0837 
     73 H73       -82.6206   29.3121  -73.1021 H         1 UNK         0.0837 
     74 H74       -81.4000   30.0850  -69.7013 H         1 UNK         0.0685 
     75 H75       -81.2322   28.5882  -68.8189 H         1 UNK         0.0685 
     76 H76       -79.3704   26.9105  -69.6824 H         1 UNK         0.1434 
     77 H77       -75.7531   28.9018  -70.8493 H         1 UNK         0.1329 
     78 H78       -79.4142   31.1103  -70.5420 H         1 UNK         0.1335 
     79 H79       -77.3404   32.2892  -70.7251 H         1 UNK         0.0680 
     80 H80       -75.8130   31.4767  -70.5727 H         1 UNK         0.0680 
     81 H81       -74.5388   30.4908  -72.2125 H         1 UNK         0.1032 
     82 H82       -74.1723   31.7991  -73.2873 H         1 UNK         0.1032 
     83 H83       -75.6661   29.3330  -74.2870 H         1 UNK         0.0461 
     84 H84       -75.2115   32.1686  -76.8555 H         1 UNK         0.3453 
     85 H85       -75.6152   32.2855  -75.1572 H         1 UNK         0.3453 
     86 H86       -73.9687   27.9910  -74.2160 H         1 UNK         0.2984 
     87 H87       -70.4264   28.4152  -73.8382 H         1 UNK         0.0554 
     88 H88       -70.8634   26.6175  -72.1902 H         1 UNK         0.0847 
     89 H89       -72.5932   26.9504  -72.2273 H         1 UNK         0.0847 
     90 H90       -71.4769   28.1407  -71.5695 H         1 UNK         0.0847 
     91 H91       -72.6093   26.9679  -75.1709 H         1 UNK         0.3141 
     92 H92       -70.2678   24.9893  -76.9786 H         1 UNK         0.0743 
     93 H93       -72.7371   24.2222  -75.3250 H         1 UNK         0.0784 
     94 H94       -72.0730   23.3047  -76.6748 H         1 UNK         0.0784 
     95 H95       -71.1492   23.4811  -75.1914 H         1 UNK         0.0784 
     96 H96       -73.0448   25.6077  -77.3775 H         1 UNK         0.3213 
     97 H97       -72.6164   28.6351  -79.1175 H         1 UNK         0.0855 
     98 H98       -72.0285   27.1056  -80.9548 H         1 UNK         0.0814 
     99 H99       -73.7433   27.4791  -81.0214 H         1 UNK         0.0814 
    100 H100      -73.1977   25.9175  -80.4092 H         1 UNK         0.0814 
    101 H101      -74.4258   28.4963  -77.9117 H         1 UNK         0.3105 
    102 H102      -76.2363   27.9567  -76.9507 H         1 UNK         0.0547 
    103 H103      -77.4715   27.3738  -79.0525 H         1 UNK         0.0837 
    104 H104      -77.6737   25.7228  -78.4760 H         1 UNK         0.0837 
    105 H105      -78.4398   27.0602  -77.6189 H         1 UNK         0.0837 
    106 H106      -77.3679   25.6896  -75.9336 H         1 UNK         0.3020 
    107 H107      -75.0956   24.8975  -73.2975 H         1 UNK         0.1245 
    108 H108      -77.8125   26.3127  -73.4670 H         1 UNK         0.0781 
    109 H109      -76.3828   26.9815  -72.7419 H         1 UNK         0.0781 
    110 H110      -75.6603   26.5811  -70.3023 H         1 UNK         0.0836 
    111 H111      -76.8643   26.0240  -69.1672 H         1 UNK         0.0836 
    112 H112      -77.6510   24.0164  -74.5012 H         1 UNK         0.3022 
    113 H113      -76.3260   21.0153  -75.7313 H         1 UNK         0.0747 
    114 H114      -77.7467   19.7519  -74.1205 H         1 UNK         0.0793 
    115 H115      -76.2637   20.2869  -73.3488 H         1 UNK         0.0793 
    116 H116      -77.7686   21.1354  -73.0248 H         1 UNK         0.0793 
    117 H117      -78.9903   21.9513  -74.9997 H         1 UNK         0.3047 
    118 H118      -79.5470   23.8140  -77.9219 H         1 UNK         0.0822 
    119 H119      -81.4555   22.2870  -78.3456 H         1 UNK         0.0807 
    120 H120      -80.7284   21.0455  -77.3238 H         1 UNK         0.0807 
    121 H121      -79.9553   21.5169  -78.8306 H         1 UNK         0.0807 
    122 H122      -81.3840   23.0338  -75.9320 H         1 UNK         0.2946 
    123 H123      -82.0844   24.8359  -74.4914 H         1 UNK         0.1144 
    124 H124      -81.1573   22.7984  -73.3638 H         1 UNK         0.0793 
    125 H125      -81.5452   24.0220  -72.1698 H         1 UNK         0.0793 
    126 H126      -79.8690   23.7549  -72.6436 H         1 UNK         0.0793 
    127 H127      -80.2431   26.1782  -72.7072 H         1 UNK         0.2896 
@<TRIPOS>BOND
     1    1    2 1    
     2    1   67 1    
     3    1   68 1    
     4    1   69 1    
     5    2    3 2    
     6    2    4 am   BACKBONE|DICT|INTERRES
     7    4    5 1    
     8    4   70 1    
     9    5    6 1    
    10    5   65 1    
    11    5   71 1    
    12    6    7 1    
    13    6   72 1    
    14    6   73 1    
    15    7    8 1    
    16    8    9 1    
    17    8   74 1    
    18    8   75 1    
    19    9   10 ar   
    20    9   14 ar   
    21   10   11 ar   
    22   10   76 1    
    23   11   12 ar   
    24   11   48 1    
    25   12   13 ar   
    26   12   77 1    
    27   13   14 ar   
    28   13   15 1    
    29   14   78 1    
    30   15   16 1    
    31   15   79 1    
    32   15   80 1    
    33   16   17 1    
    34   17   18 1    
    35   17   81 1    
    36   17   82 1    
    37   18   19 1    
    38   18   22 1    
    39   18   83 1    
    40   19   20 am   BACKBONE|DICT|INTERRES
    41   19   21 2    
    42   20   84 1    
    43   20   85 1    
    44   22   23 am   BACKBONE|DICT|INTERRES
    45   22   86 1    
    46   23   24 2    
    47   23   25 1    
    48   25   26 1    
    49   25   27 1    
    50   25   87 1    
    51   26   88 1    
    52   26   89 1    
    53   26   90 1    
    54   27   28 am   BACKBONE|DICT|INTERRES
    55   27   91 1    
    56   28   29 2    
    57   28   30 1    
    58   30   31 1    
    59   30   32 1    
    60   30   92 1    
    61   31   93 1    
    62   31   94 1    
    63   31   95 1    
    64   32   33 am   BACKBONE|DICT|INTERRES
    65   32   96 1    
    66   33   34 2    
    67   33   35 1    
    68   35   36 1    
    69   35   37 1    
    70   35   97 1    
    71   36   98 1    
    72   36   99 1    
    73   36  100 1    
    74   37   38 am   BACKBONE|DICT|INTERRES
    75   37  101 1    
    76   38   39 2    
    77   38   40 1    
    78   40   41 1    
    79   40   42 1    
    80   40  102 1    
    81   41  103 1    
    82   41  104 1    
    83   41  105 1    
    84   42   43 am   BACKBONE|DICT|INTERRES
    85   42  106 1    
    86   43   44 2    
    87   43   45 1    
    88   45   46 1    
    89   45   49 1    
    90   45  107 1    
    91   46   47 1    
    92   46  108 1    
    93   46  109 1    
    94   47   48 1    
    95   48  110 1    
    96   48  111 1    
    97   49   50 am   BACKBONE|DICT|INTERRES
    98   49  112 1    
    99   50   51 2    
   100   50   52 1    
   101   52   53 1    
   102   52   54 1    
   103   52  113 1    
   104   53  114 1    
   105   53  115 1    
   106   53  116 1    
   107   54   55 am   BACKBONE|DICT|INTERRES
   108   54  117 1    
   109   55   56 2    
   110   55   57 1    
   111   57   58 1    
   112   57   59 1    
   113   57  118 1    
   114   58  119 1    
   115   58  120 1    
   116   58  121 1    
   117   59   60 am   BACKBONE|DICT|INTERRES
   118   59  122 1    
   119   60   61 2    
   120   60   62 1    
   121   62   63 1    
   122   62   64 1    
   123   62  123 1    
   124   63  124 1    
   125   63  125 1    
   126   63  126 1    
   127   64   65 am   BACKBONE|DICT|INTERRES
   128   64  127 1    
   129   65   66 2    
@<TRIPOS>SUBSTRUCTURE
     1 UNK         1 GROUP             0       ****    0 ROOT    
