@<TRIPOS>MOLECULE
3R135
127   129    1
SMALL
USER_CHARGES


@<TRIPOS>ATOM
      1 CA        -78.6099   29.2064  -78.2739 C.3       0 UNK        -0.1998 
      2 C         -79.2897   28.3280  -77.2347 C.2       0 UNK         0.4909 
      3 O         -79.3951   27.1186  -77.4349 O.2       0 UNK        -0.5240 
      4 N         -79.7413   28.9293  -76.1258 N.am      1 UNK        -0.4739 
      5 CA        -80.4110   28.2522  -75.0093 C.3       1 UNK         0.0864 
      6 C6        -80.6245   29.2159  -73.8107 C.3       11 UNK        -0.0881 
      7 S7        -79.0560   29.7743  -73.0705 S.3       11 UNK        -0.2682 
      8 C8        -79.1456   29.0703  -71.3976 C.3       11 UNK         0.0289 
      9 C9        -77.7573   28.7486  -70.8706 C.ar      11 UNK        -0.0687 
     10 C10       -77.2167   27.4757  -71.0715 C.ar      11 UNK        -0.0823 
     11 C11       -75.9524   27.1527  -70.5710 C.ar      11 UNK        -0.0830 
     12 C12       -75.2312   28.1164  -69.8596 C.ar      11 UNK        -0.1021 
     13 C13       -75.7656   29.3904  -69.6426 C.ar      11 UNK        -0.0753 
     14 C14       -77.0257   29.7057  -70.1607 C.ar      11 UNK        -0.0933 
     15 C15       -75.0066   30.3974  -68.7902 C.3       11 UNK         0.0166 
     16 S16       -73.4877   30.9918  -69.5949 S.3       11 UNK        -0.2615 
     17 C17       -74.1352   32.2027  -70.8024 C.3       11 UNK        -0.0865 
     18 CA        -73.7191   31.9105  -72.2672 C.3       10 UNK         0.0862 
     19 C         -72.1825   32.0626  -72.4884 C.2       10 UNK         0.5551 
     20 N         -71.4501   31.0187  -72.8603 N.am      10 UNK        -0.7319 
     21 O         -71.6491   33.1581  -72.3287 O.2       10 UNK        -0.5018 
     22 N         -74.3036   30.6525  -72.7524 N.am      10 UNK        -0.4509 
     23 C         -74.4160   30.3228  -74.0435 C.2       10 UNK         0.4899 
     24 O         -74.1158   31.0683  -74.9785 O.2       10 UNK        -0.4839 
     25 CA        -74.9501   28.9141  -74.3426 C.3       9 UNK         0.0222 
     26 CB        -76.2015   29.0036  -75.2281 C.3       9 UNK        -0.1966 
     27 N         -73.9520   28.0637  -74.9995 N.am      9 UNK        -0.4218 
     28 C         -72.7252   27.7847  -74.5257 C.2       9 UNK         0.5020 
     29 O         -72.2820   28.2404  -73.4693 O.2       9 UNK        -0.5274 
     30 CA        -71.8278   26.8326  -75.3402 C.3       8 UNK         0.0270 
     31 CB        -71.5259   25.5481  -74.5492 C.3       8 UNK        -0.1976 
     32 N         -72.3930   26.4705  -76.6421 N.am      8 UNK        -0.4313 
     33 C         -72.2385   27.1978  -77.7579 C.2       8 UNK         0.5041 
     34 O         -71.5682   28.2297  -77.8098 O.2       8 UNK        -0.5577 
     35 CA        -72.9455   26.7085  -79.0369 C.3       7 UNK         0.0284 
     36 CB        -71.9502   25.9801  -79.9548 C.3       7 UNK        -0.1958 
     37 N         -74.0997   25.8379  -78.7955 N.am      7 UNK        -0.4454 
     38 C         -75.2226   26.2058  -78.1640 C.2       7 UNK         0.5089 
     39 O         -75.3997   27.3322  -77.7064 O.2       7 UNK        -0.5125 
     40 CA        -76.3168   25.1379  -77.9730 C.3       6 UNK         0.0408 
     41 CB        -76.1303   23.8969  -78.8739 C.3       6 UNK        -0.1791 
     42 N         -76.4663   24.7363  -76.5671 N.am      6 UNK        -0.4762 
     43 C         -75.4962   24.3092  -75.7391 C.2       6 UNK         0.5007 
     44 O         -74.3092   24.2208  -76.0588 O.2       6 UNK        -0.5032 
     45 CA        -75.9364   23.8755  -74.3283 C.3       5 UNK         0.0783 
     46 C46       -76.1858   25.0924  -73.3990 C.3       11 UNK        -0.0857 
     47 S47       -74.7006   25.5192  -72.4316 S.3       11 UNK        -0.2512 
     48 C48       -75.3803   25.7542  -70.7602 C.3       11 UNK         0.0225 
     49 N         -77.1172   23.0163  -74.4196 N.am      5 UNK        -0.4615 
     50 C         -77.0890   21.6810  -74.5395 C.2       4 UNK         0.5053 
     51 O         -76.0577   21.0102  -74.4956 O.2       4 UNK        -0.5105 
     52 CA        -78.4390   20.9666  -74.7518 C.3       4 UNK         0.0263 
     53 CB        -79.0364   20.5331  -73.4035 C.3       4 UNK        -0.1981 
     54 N         -79.4065   21.8050  -75.4627 N.am      4 UNK        -0.4224 
     55 C         -79.2833   22.1771  -76.7444 C.2       3 UNK         0.4895 
     56 O         -78.4740   21.6656  -77.5172 O.2       3 UNK        -0.5091 
     57 CA        -80.1820   23.3235  -77.2540 C.3       3 UNK         0.0250 
     58 CB        -81.1479   22.8135  -78.3366 C.3       3 UNK        -0.1996 
     59 N         -80.9546   24.0298  -76.2229 N.am      3 UNK        -0.4254 
     60 C         -80.4571   24.7274  -75.1915 C.2       2 UNK         0.5004 
     61 O         -79.2528   24.8405  -74.9515 O.2       2 UNK        -0.5226 
     62 CA        -81.5046   25.3914  -74.2830 C.3       2 UNK         0.0269 
     63 CB        -80.9706   25.7965  -72.8906 C.3       2 UNK        -0.1926 
     64 N         -82.2060   26.4777  -74.9838 N.am      2 UNK        -0.4687 
     65 C         -81.7789   27.6688  -75.4372 C.2       1 UNK         0.5165 
     66 O         -82.5088   28.3610  -76.1486 O.2       1 UNK        -0.5079 
     67 H67       -77.5924   28.8575  -78.4483 H         1 UNK         0.0900 
     68 H68       -78.5603   30.2484  -77.9585 H         1 UNK         0.0900 
     69 H69       -79.1530   29.1608  -79.2172 H         1 UNK         0.0900 
     70 H70       -79.6376   29.9283  -76.0236 H         1 UNK         0.2959 
     71 H71       -79.7381   27.4495  -74.7196 H         1 UNK         0.1079 
     72 H72       -81.2383   28.7495  -73.0383 H         1 UNK         0.0837 
     73 H73       -81.1812   30.0998  -74.1282 H         1 UNK         0.0837 
     74 H74       -79.6505   29.7771  -70.7374 H         1 UNK         0.0685 
     75 H75       -79.7516   28.1643  -71.3939 H         1 UNK         0.0685 
     76 H76       -77.7883   26.7349  -71.6115 H         1 UNK         0.1434 
     77 H77       -74.2586   27.8715  -69.4544 H         1 UNK         0.1329 
     78 H78       -77.4497   30.6864  -69.9929 H         1 UNK         0.1335 
     79 H79       -75.6375   31.2475  -68.5256 H         1 UNK         0.0680 
     80 H80       -74.7336   29.9209  -67.8475 H         1 UNK         0.0680 
     81 H81       -73.7945   33.1962  -70.5049 H         1 UNK         0.1032 
     82 H82       -75.2235   32.2413  -70.7373 H         1 UNK         0.1032 
     83 H83       -74.1672   32.7027  -72.8705 H         1 UNK         0.0461 
     84 H84       -70.4600   31.1364  -73.0008 H         1 UNK         0.3453 
     85 H85       -71.8744   30.1056  -72.9941 H         1 UNK         0.3453 
     86 H86       -74.5356   29.9711  -72.0427 H         1 UNK         0.2984 
     87 H87       -75.2310   28.4348  -73.4026 H         1 UNK         0.0554 
     88 H88       -76.9227   29.7037  -74.8135 H         1 UNK         0.0847 
     89 H89       -76.6975   28.0382  -75.3280 H         1 UNK         0.0847 
     90 H90       -75.9610   29.3688  -76.2267 H         1 UNK         0.0847 
     91 H91       -74.2180   27.6872  -75.9015 H         1 UNK         0.3141 
     92 H92       -70.8791   27.3508  -75.4956 H         1 UNK         0.0743 
     93 H93       -71.0633   25.7792  -73.5888 H         1 UNK         0.0784 
     94 H94       -72.4306   24.9772  -74.3423 H         1 UNK         0.0784 
     95 H95       -70.8377   24.9002  -75.0920 H         1 UNK         0.0784 
     96 H96       -72.9816   25.6418  -76.6656 H         1 UNK         0.3213 
     97 H97       -73.3079   27.5957  -79.5610 H         1 UNK         0.0855 
     98 H98       -71.0915   26.6142  -80.1804 H         1 UNK         0.0814 
     99 H99       -72.4091   25.7110  -80.9064 H         1 UNK         0.0814 
    100 H100      -71.5686   25.0682  -79.4937 H         1 UNK         0.0814 
    101 H101      -74.0207   24.8810  -79.1076 H         1 UNK         0.3105 
    102 H102      -77.2549   25.6136  -78.2613 H         1 UNK         0.0547 
    103 H103      -75.9850   24.1795  -79.9175 H         1 UNK         0.0837 
    104 H104      -75.2818   23.2838  -78.5686 H         1 UNK         0.0837 
    105 H105      -77.0152   23.2649  -78.8502 H         1 UNK         0.0837 
    106 H106      -77.4017   24.8287  -76.1870 H         1 UNK         0.3020 
    107 H107      -75.1203   23.2804  -73.9105 H         1 UNK         0.1245 
    108 H108      -76.9887   24.8550  -72.7006 H         1 UNK         0.0781 
    109 H109      -76.5298   25.9742  -73.9433 H         1 UNK         0.0781 
    110 H110      -74.5800   25.5788  -70.0398 H         1 UNK         0.0836 
    111 H111      -76.1400   25.0010  -70.5469 H         1 UNK         0.0836 
    112 H112      -78.0051   23.5036  -74.5037 H         1 UNK         0.3022 
    113 H113      -78.2533   20.0722  -75.3505 H         1 UNK         0.0747 
    114 H114      -79.9618   19.9734  -73.5407 H         1 UNK         0.0793 
    115 H115      -78.3451   19.8856  -72.8622 H         1 UNK         0.0793 
    116 H116      -79.2516   21.3885  -72.7615 H         1 UNK         0.0793 
    117 H117      -80.1195   22.2510  -74.9057 H         1 UNK         0.3047 
    118 H118      -79.5159   24.0580  -77.7123 H         1 UNK         0.0822 
    119 H119      -81.7138   23.6321  -78.7819 H         1 UNK         0.0807 
    120 H120      -81.8587   22.0904  -77.9348 H         1 UNK         0.0807 
    121 H121      -80.6064   22.3223  -79.1465 H         1 UNK         0.0807 
    122 H122      -81.9578   24.0052  -76.3378 H         1 UNK         0.2946 
    123 H123      -82.2682   24.6335  -74.0969 H         1 UNK         0.1144 
    124 H124      -81.7048   26.3782  -72.3335 H         1 UNK         0.0793 
    125 H125      -80.0402   26.3585  -72.9203 H         1 UNK         0.0793 
    126 H126      -80.7598   24.9042  -72.2999 H         1 UNK         0.0793 
    127 H127      -83.1420   26.2253  -75.2690 H         1 UNK         0.2896 
@<TRIPOS>BOND
     1    1    2 1    
     2    1   67 1    
     3    1   68 1    
     4    1   69 1    
     5    2    3 2    
     6    2    4 am   BACKBONE|DICT|INTERRES
     7    4    5 1    
     8    4   70 1    
     9    5    6 1    
    10    5   65 1    
    11    5   71 1    
    12    6    7 1    
    13    6   72 1    
    14    6   73 1    
    15    7    8 1    
    16    8    9 1    
    17    8   74 1    
    18    8   75 1    
    19    9   10 ar   
    20    9   14 ar   
    21   10   11 ar   
    22   10   76 1    
    23   11   12 ar   
    24   11   48 1    
    25   12   13 ar   
    26   12   77 1    
    27   13   14 ar   
    28   13   15 1    
    29   14   78 1    
    30   15   16 1    
    31   15   79 1    
    32   15   80 1    
    33   16   17 1    
    34   17   18 1    
    35   17   81 1    
    36   17   82 1    
    37   18   19 1    
    38   18   22 1    
    39   18   83 1    
    40   19   20 am   BACKBONE|DICT|INTERRES
    41   19   21 2    
    42   20   84 1    
    43   20   85 1    
    44   22   23 am   BACKBONE|DICT|INTERRES
    45   22   86 1    
    46   23   24 2    
    47   23   25 1    
    48   25   26 1    
    49   25   27 1    
    50   25   87 1    
    51   26   88 1    
    52   26   89 1    
    53   26   90 1    
    54   27   28 am   BACKBONE|DICT|INTERRES
    55   27   91 1    
    56   28   29 2    
    57   28   30 1    
    58   30   31 1    
    59   30   32 1    
    60   30   92 1    
    61   31   93 1    
    62   31   94 1    
    63   31   95 1    
    64   32   33 am   BACKBONE|DICT|INTERRES
    65   32   96 1    
    66   33   34 2    
    67   33   35 1    
    68   35   36 1    
    69   35   37 1    
    70   35   97 1    
    71   36   98 1    
    72   36   99 1    
    73   36  100 1    
    74   37   38 am   BACKBONE|DICT|INTERRES
    75   37  101 1    
    76   38   39 2    
    77   38   40 1    
    78   40   41 1    
    79   40   42 1    
    80   40  102 1    
    81   41  103 1    
    82   41  104 1    
    83   41  105 1    
    84   42   43 am   BACKBONE|DICT|INTERRES
    85   42  106 1    
    86   43   44 2    
    87   43   45 1    
    88   45   46 1    
    89   45   49 1    
    90   45  107 1    
    91   46   47 1    
    92   46  108 1    
    93   46  109 1    
    94   47   48 1    
    95   48  110 1    
    96   48  111 1    
    97   49   50 am   BACKBONE|DICT|INTERRES
    98   49  112 1    
    99   50   51 2    
   100   50   52 1    
   101   52   53 1    
   102   52   54 1    
   103   52  113 1    
   104   53  114 1    
   105   53  115 1    
   106   53  116 1    
   107   54   55 am   BACKBONE|DICT|INTERRES
   108   54  117 1    
   109   55   56 2    
   110   55   57 1    
   111   57   58 1    
   112   57   59 1    
   113   57  118 1    
   114   58  119 1    
   115   58  120 1    
   116   58  121 1    
   117   59   60 am   BACKBONE|DICT|INTERRES
   118   59  122 1    
   119   60   61 2    
   120   60   62 1    
   121   62   63 1    
   122   62   64 1    
   123   62  123 1    
   124   63  124 1    
   125   63  125 1    
   126   63  126 1    
   127   64   65 am   BACKBONE|DICT|INTERRES
   128   64  127 1    
   129   65   66 2    
@<TRIPOS>SUBSTRUCTURE
     1 UNK         1 GROUP             0       ****    0 ROOT    
