@<TRIPOS>MOLECULE
3R135
127   129    1
SMALL
USER_CHARGES


@<TRIPOS>ATOM
      1 CA        -84.3965   26.8183  -71.1567 C.3       0 UNK        -0.1998 
      2 C         -83.2072   27.0552  -72.0747 C.2       0 UNK         0.4909 
      3 O         -83.3897   27.4503  -73.2274 O.2       0 UNK        -0.5240 
      4 N         -81.9873   26.8184  -71.5768 N.am      1 UNK        -0.4739 
      5 CA        -80.7322   26.9737  -72.3178 C.3       1 UNK         0.0864 
      6 C6        -79.5223   27.2345  -71.3786 C.3       11 UNK        -0.0881 
      7 S7        -79.7665   28.5563  -70.1411 S.3       11 UNK        -0.2682 
      8 C8        -79.8979   30.0666  -71.1521 C.3       11 UNK         0.0289 
      9 C9        -78.6798   30.3162  -72.0325 C.ar      11 UNK        -0.0687 
     10 C10       -78.8398   30.4492  -73.4143 C.ar      11 UNK        -0.0823 
     11 C11       -77.7377   30.6871  -74.2433 C.ar      11 UNK        -0.0830 
     12 C12       -76.4726   30.8294  -73.6661 C.ar      11 UNK        -0.1021 
     13 C13       -76.2970   30.7145  -72.2837 C.ar      11 UNK        -0.0753 
     14 C14       -77.4049   30.4519  -71.4718 C.ar      11 UNK        -0.0933 
     15 C15       -74.9200   30.9332  -71.6692 C.3       11 UNK         0.0166 
     16 S16       -73.6656   29.7857  -72.3229 S.3       11 UNK        -0.2615 
     17 C17       -74.0039   28.2741  -71.3587 C.3       11 UNK        -0.0865 
     18 CA        -72.8371   27.2550  -71.4725 C.3       10 UNK         0.0862 
     19 C         -72.9780   26.0865  -70.4561 C.2       10 UNK         0.5551 
     20 N         -72.7974   26.3658  -69.1723 N.am      10 UNK        -0.7319 
     21 O         -73.2644   24.9429  -70.8049 O.2       10 UNK        -0.5018 
     22 N         -72.6661   26.8084  -72.8612 N.am      10 UNK        -0.4509 
     23 C         -71.5876   26.1900  -73.3556 C.2       10 UNK         0.4899 
     24 O         -70.5964   25.8909  -72.6881 O.2       10 UNK        -0.4839 
     25 CA        -71.5930   25.8890  -74.8668 C.3       9 UNK         0.0222 
     26 CB        -72.1604   24.4883  -75.1449 C.3       9 UNK        -0.1966 
     27 N         -72.3328   26.8759  -75.6598 N.am      9 UNK        -0.4218 
     28 C         -72.0073   28.1721  -75.7778 C.2       9 UNK         0.5020 
     29 O         -71.0116   28.6792  -75.2558 O.2       9 UNK        -0.5274 
     30 CA        -72.9487   29.0320  -76.6458 C.3       8 UNK         0.0270 
     31 CB        -72.4263   30.4657  -76.8742 C.3       8 UNK        -0.1976 
     32 N         -73.2844   28.3938  -77.9251 N.am      8 UNK        -0.4313 
     33 C         -72.4347   27.9365  -78.8612 C.2       8 UNK         0.5041 
     34 O         -71.2120   28.0781  -78.8007 O.2       8 UNK        -0.5577 
     35 CA        -73.0398   27.2028  -80.0802 C.3       7 UNK         0.0284 
     36 CB        -72.1406   26.0460  -80.5681 C.3       7 UNK        -0.1958 
     37 N         -74.4213   26.7372  -79.8898 N.am      7 UNK        -0.4454 
     38 C         -74.8680   25.8593  -78.9801 C.2       7 UNK         0.5089 
     39 O         -74.1547   25.2780  -78.1602 O.2       7 UNK        -0.5125 
     40 CA        -76.3945   25.6652  -78.9371 C.3       6 UNK         0.0408 
     41 CB        -76.7688   24.1857  -79.1192 C.3       6 UNK        -0.1791 
     42 N         -76.9719   26.1568  -77.6843 N.am      6 UNK        -0.4762 
     43 C         -76.7952   27.3771  -77.1532 C.2       6 UNK         0.5007 
     44 O         -76.1530   28.2776  -77.6960 O.2       6 UNK        -0.5032 
     45 CA        -77.4067   27.6189  -75.7629 C.3       5 UNK         0.0783 
     46 C46       -78.8805   28.0882  -75.8532 C.3       11 UNK        -0.0857 
     47 S47       -79.1803   29.7694  -76.5088 S.3       11 UNK        -0.2512 
     48 C48       -77.8786   30.8147  -75.7602 C.3       11 UNK         0.0225 
     49 N         -77.2846   26.4222  -74.9283 N.am      5 UNK        -0.4615 
     50 C         -76.1630   26.0496  -74.2978 C.2       4 UNK         0.5053 
     51 O         -75.1292   26.7166  -74.3048 O.2       4 UNK        -0.5105 
     52 CA        -76.1886   24.7114  -73.5380 C.3       4 UNK         0.0263 
     53 CB        -76.4238   24.9363  -72.0379 C.3       4 UNK        -0.1981 
     54 N         -77.2099   23.7986  -74.0565 N.am      4 UNK        -0.4224 
     55 C         -77.0282   23.0067  -75.1235 C.2       3 UNK         0.4895 
     56 O         -75.9499   22.8838  -75.7031 O.2       3 UNK        -0.5091 
     57 CA        -78.2469   22.2274  -75.6551 C.3       3 UNK         0.0250 
     58 CB        -78.2287   20.7822  -75.1316 C.3       3 UNK        -0.1996 
     59 N         -79.5442   22.8355  -75.3419 N.am      3 UNK        -0.4254 
     60 C         -79.9532   24.0450  -75.7501 C.2       2 UNK         0.5004 
     61 O         -79.2628   24.7939  -76.4415 O.2       2 UNK        -0.5226 
     62 CA        -81.3373   24.5299  -75.2711 C.3       2 UNK         0.0269 
     63 CB        -82.2142   23.4120  -74.6626 C.3       2 UNK        -0.1926 
     64 N         -81.2565   25.6573  -74.3297 N.am      2 UNK        -0.4687 
     65 C         -80.5109   25.7355  -73.2167 C.2       1 UNK         0.5165 
     66 O         -79.7131   24.8613  -72.8724 O.2       1 UNK        -0.5079 
     67 H67       -84.0868   26.4833  -70.1668 H         1 UNK         0.0900 
     68 H68       -84.9687   27.7382  -71.0397 H         1 UNK         0.0900 
     69 H69       -85.0529   26.0597  -71.5821 H         1 UNK         0.0900 
     70 H70       -81.8910   26.4897  -70.6263 H         1 UNK         0.2959 
     71 H71       -80.8239   27.8410  -72.9746 H         1 UNK         0.1079 
     72 H72       -79.2855   26.3347  -70.8081 H         1 UNK         0.0837 
     73 H73       -78.6305   27.4654  -71.9647 H         1 UNK         0.0837 
     74 H74       -80.8094   30.0091  -71.7491 H         1 UNK         0.0685 
     75 H75       -80.0268   30.9202  -70.4854 H         1 UNK         0.0685 
     76 H76       -79.8277   30.3659  -73.8453 H         1 UNK         0.1434 
     77 H77       -75.6151   31.0359  -74.2924 H         1 UNK         0.1329 
     78 H78       -77.2826   30.3683  -70.4005 H         1 UNK         0.1335 
     79 H79       -74.6027   31.9528  -71.8921 H         1 UNK         0.0680 
     80 H80       -74.9546   30.8573  -70.5814 H         1 UNK         0.0680 
     81 H81       -74.1654   28.5615  -70.3183 H         1 UNK         0.1032 
     82 H82       -74.9423   27.8409  -71.7071 H         1 UNK         0.1032 
     83 H83       -71.9163   27.7763  -71.2021 H         1 UNK         0.0461 
     84 H84       -72.5525   27.2949  -68.8671 H         1 UNK         0.3453 
     85 H85       -72.8894   25.6253  -68.4946 H         1 UNK         0.3453 
     86 H86       -73.4627   26.9579  -73.4751 H         1 UNK         0.2984 
     87 H87       -70.5557   25.9076  -75.2071 H         1 UNK         0.0554 
     88 H88       -71.6330   23.7288  -74.5662 H         1 UNK         0.0847 
     89 H89       -72.0609   24.2223  -76.1976 H         1 UNK         0.0847 
     90 H90       -73.2171   24.4224  -74.8863 H         1 UNK         0.0847 
     91 H91       -73.1651   26.5447  -76.1303 H         1 UNK         0.3141 
     92 H92       -73.8833   29.1088  -76.0871 H         1 UNK         0.0743 
     93 H93       -71.4745   30.4687  -77.4065 H         1 UNK         0.0784 
     94 H94       -73.1361   31.0586  -77.4509 H         1 UNK         0.0784 
     95 H95       -72.2715   30.9797  -75.9246 H         1 UNK         0.0784 
     96 H96       -74.2803   28.2421  -78.0710 H         1 UNK         0.3213 
     97 H97       -73.0806   27.9450  -80.8789 H         1 UNK         0.0855 
     98 H98       -71.9877   25.2972  -79.7902 H         1 UNK         0.0814 
     99 H99       -71.1561   26.4110  -80.8633 H         1 UNK         0.0814 
    100 H100      -72.5707   25.5463  -81.4360 H         1 UNK         0.0814 
    101 H101      -75.1090   27.1870  -80.4794 H         1 UNK         0.3105 
    102 H102      -76.8517   26.2327  -79.7500 H         1 UNK         0.0547 
    103 H103      -76.3919   23.8021  -80.0680 H         1 UNK         0.0837 
    104 H104      -76.3482   23.5645  -78.3277 H         1 UNK         0.0837 
    105 H105      -77.8498   24.0443  -79.1168 H         1 UNK         0.0837 
    106 H106      -77.5675   25.5081  -77.1789 H         1 UNK         0.3020 
    107 H107      -76.8094   28.3953  -75.2858 H         1 UNK         0.1245 
    108 H108      -79.3227   28.0630  -74.8585 H         1 UNK         0.0781 
    109 H109      -79.4727   27.3917  -76.4484 H         1 UNK         0.0781 
    110 H110      -78.0975   31.8565  -75.9975 H         1 UNK         0.0836 
    111 H111      -76.9311   30.5880  -76.2518 H         1 UNK         0.0836 
    112 H112      -78.0668   25.7813  -74.9502 H         1 UNK         0.3022 
    113 H113      -75.2048   24.2520  -73.6488 H         1 UNK         0.0747 
    114 H114      -76.3282   24.0051  -71.4795 H         1 UNK         0.0793 
    115 H115      -75.6959   25.6330  -71.6278 H         1 UNK         0.0793 
    116 H116      -77.4088   25.3480  -71.8354 H         1 UNK         0.0793 
    117 H117      -78.1321   23.8629  -73.6345 H         1 UNK         0.3047 
    118 H118      -78.1561   22.1976  -76.7431 H         1 UNK         0.0822 
    119 H119      -79.0258   20.1872  -75.5778 H         1 UNK         0.0807 
    120 H120      -78.3452   20.7440  -74.0477 H         1 UNK         0.0807 
    121 H121      -77.2857   20.2904  -75.3754 H         1 UNK         0.0807 
    122 H122      -80.1620   22.3019  -74.7476 H         1 UNK         0.2946 
    123 H123      -81.8456   24.9008  -76.1629 H         1 UNK         0.1144 
    124 H124      -83.2173   23.7811  -74.4477 H         1 UNK         0.0793 
    125 H125      -81.8039   23.0261  -73.7284 H         1 UNK         0.0793 
    126 H126      -82.3277   22.5747  -75.3528 H         1 UNK         0.0793 
    127 H127      -81.9187   26.4081  -74.4903 H         1 UNK         0.2896 
@<TRIPOS>BOND
     1    1    2 1    
     2    1   67 1    
     3    1   68 1    
     4    1   69 1    
     5    2    3 2    
     6    2    4 am   BACKBONE|DICT|INTERRES
     7    4    5 1    
     8    4   70 1    
     9    5    6 1    
    10    5   65 1    
    11    5   71 1    
    12    6    7 1    
    13    6   72 1    
    14    6   73 1    
    15    7    8 1    
    16    8    9 1    
    17    8   74 1    
    18    8   75 1    
    19    9   10 ar   
    20    9   14 ar   
    21   10   11 ar   
    22   10   76 1    
    23   11   12 ar   
    24   11   48 1    
    25   12   13 ar   
    26   12   77 1    
    27   13   14 ar   
    28   13   15 1    
    29   14   78 1    
    30   15   16 1    
    31   15   79 1    
    32   15   80 1    
    33   16   17 1    
    34   17   18 1    
    35   17   81 1    
    36   17   82 1    
    37   18   19 1    
    38   18   22 1    
    39   18   83 1    
    40   19   20 am   BACKBONE|DICT|INTERRES
    41   19   21 2    
    42   20   84 1    
    43   20   85 1    
    44   22   23 am   BACKBONE|DICT|INTERRES
    45   22   86 1    
    46   23   24 2    
    47   23   25 1    
    48   25   26 1    
    49   25   27 1    
    50   25   87 1    
    51   26   88 1    
    52   26   89 1    
    53   26   90 1    
    54   27   28 am   BACKBONE|DICT|INTERRES
    55   27   91 1    
    56   28   29 2    
    57   28   30 1    
    58   30   31 1    
    59   30   32 1    
    60   30   92 1    
    61   31   93 1    
    62   31   94 1    
    63   31   95 1    
    64   32   33 am   BACKBONE|DICT|INTERRES
    65   32   96 1    
    66   33   34 2    
    67   33   35 1    
    68   35   36 1    
    69   35   37 1    
    70   35   97 1    
    71   36   98 1    
    72   36   99 1    
    73   36  100 1    
    74   37   38 am   BACKBONE|DICT|INTERRES
    75   37  101 1    
    76   38   39 2    
    77   38   40 1    
    78   40   41 1    
    79   40   42 1    
    80   40  102 1    
    81   41  103 1    
    82   41  104 1    
    83   41  105 1    
    84   42   43 am   BACKBONE|DICT|INTERRES
    85   42  106 1    
    86   43   44 2    
    87   43   45 1    
    88   45   46 1    
    89   45   49 1    
    90   45  107 1    
    91   46   47 1    
    92   46  108 1    
    93   46  109 1    
    94   47   48 1    
    95   48  110 1    
    96   48  111 1    
    97   49   50 am   BACKBONE|DICT|INTERRES
    98   49  112 1    
    99   50   51 2    
   100   50   52 1    
   101   52   53 1    
   102   52   54 1    
   103   52  113 1    
   104   53  114 1    
   105   53  115 1    
   106   53  116 1    
   107   54   55 am   BACKBONE|DICT|INTERRES
   108   54  117 1    
   109   55   56 2    
   110   55   57 1    
   111   57   58 1    
   112   57   59 1    
   113   57  118 1    
   114   58  119 1    
   115   58  120 1    
   116   58  121 1    
   117   59   60 am   BACKBONE|DICT|INTERRES
   118   59  122 1    
   119   60   61 2    
   120   60   62 1    
   121   62   63 1    
   122   62   64 1    
   123   62  123 1    
   124   63  124 1    
   125   63  125 1    
   126   63  126 1    
   127   64   65 am   BACKBONE|DICT|INTERRES
   128   64  127 1    
   129   65   66 2    
@<TRIPOS>SUBSTRUCTURE
     1 UNK         1 GROUP             0       ****    0 ROOT    
