@<TRIPOS>MOLECULE
3R135
127   129    1
SMALL
USER_CHARGES


@<TRIPOS>ATOM
      1 CA        -81.7474   24.8050  -72.7813 C.3       0 UNK        -0.1998 
      2 C         -81.5986   25.5807  -74.0804 C.2       0 UNK         0.4909 
      3 O         -82.2900   25.2844  -75.0569 O.2       0 UNK        -0.5240 
      4 N         -80.6873   26.5601  -74.1050 N.am      1 UNK        -0.4739 
      5 CA        -80.3952   27.4522  -75.2325 C.3       1 UNK         0.0864 
      6 C6        -79.6659   28.7303  -74.7505 C.3       11 UNK        -0.0881 
      7 S7        -80.7496   29.8400  -73.7861 S.3       11 UNK        -0.2682 
      8 C8        -80.4466   29.3379  -72.0550 C.3       11 UNK         0.0289 
      9 C9        -78.9819   29.3773  -71.6257 C.ar      11 UNK        -0.0687 
     10 C10       -78.4804   28.3643  -70.8042 C.ar      11 UNK        -0.0823 
     11 C11       -77.1424   28.3703  -70.4006 C.ar      11 UNK        -0.0830 
     12 C12       -76.3051   29.4113  -70.8123 C.ar      11 UNK        -0.1021 
     13 C13       -76.7886   30.4377  -71.6355 C.ar      11 UNK        -0.0753 
     14 C14       -78.1318   30.4156  -72.0232 C.ar      11 UNK        -0.0933 
     15 C15       -75.9173   31.5997  -72.1202 C.3       11 UNK         0.0166 
     16 S16       -74.1122   31.3758  -71.9581 S.3       11 UNK        -0.2615 
     17 C17       -73.8012   30.0486  -73.1714 C.3       11 UNK        -0.0865 
     18 CA        -72.4162   29.3758  -72.9835 C.3       10 UNK         0.0862 
     19 C         -72.4031   28.3620  -71.8013 C.2       10 UNK         0.5551 
     20 N         -72.3907   27.0569  -72.0440 N.am      10 UNK        -0.7319 
     21 O         -72.3784   28.7640  -70.6412 O.2       10 UNK        -0.5018 
     22 N         -71.9411   28.8143  -74.2546 N.am      10 UNK        -0.4509 
     23 C         -70.6570   28.6124  -74.5751 C.2       10 UNK         0.4899 
     24 O         -69.7102   28.9220  -73.8513 O.2       10 UNK        -0.4839 
     25 CA        -70.3751   27.9667  -75.9406 C.3       9 UNK         0.0222 
     26 CB        -70.3952   26.4343  -75.8148 C.3       9 UNK        -0.1966 
     27 N         -71.3571   28.3808  -76.9461 N.am      9 UNK        -0.4218 
     28 C         -71.1675   29.3400  -77.8627 C.2       9 UNK         0.5020 
     29 O         -70.1157   29.9694  -77.9865 O.2       9 UNK        -0.5274 
     30 CA        -72.3328   29.6469  -78.8252 C.3       8 UNK         0.0270 
     31 CB        -72.1517   28.8768  -80.1438 C.3       8 UNK        -0.1976 
     32 N         -73.6549   29.3422  -78.2712 N.am      8 UNK        -0.4313 
     33 C         -74.2655   30.0579  -77.3170 C.2       8 UNK         0.5041 
     34 O         -73.8074   31.0996  -76.8475 O.2       8 UNK        -0.5577 
     35 CA        -75.6073   29.5180  -76.7785 C.3       7 UNK         0.0284 
     36 CB        -76.7693   30.1447  -77.5655 C.3       7 UNK        -0.1958 
     37 N         -75.7621   28.0541  -76.7800 N.am      7 UNK        -0.4454 
     38 C         -74.8866   27.1608  -76.3027 C.2       7 UNK         0.5089 
     39 O         -73.7858   27.4659  -75.8466 O.2       7 UNK        -0.5125 
     40 CA        -75.3027   25.6841  -76.3617 C.3       6 UNK         0.0408 
     41 CB        -74.2406   24.8166  -77.0664 C.3       6 UNK        -0.1791 
     42 N         -75.6272   25.1822  -75.0251 N.am      6 UNK        -0.4762 
     43 C         -74.8185   25.0003  -73.9703 C.2       6 UNK         0.5007 
     44 O         -73.5924   25.1083  -74.0019 O.2       6 UNK        -0.5032 
     45 CA        -75.4971   24.6336  -72.6348 C.3       5 UNK         0.0783 
     46 C46       -76.0386   25.9152  -71.9489 C.3       11 UNK        -0.0857 
     47 S47       -76.7692   25.6056  -70.3073 S.3       11 UNK        -0.2512 
     48 C48       -76.5931   27.2461  -69.5289 C.3       11 UNK         0.0225 
     49 N         -76.4790   23.5415  -72.7609 N.am      5 UNK        -0.4615 
     50 C         -77.6828   23.5811  -73.3434 C.2       4 UNK         0.5053 
     51 O         -78.1568   24.5819  -73.8895 O.2       4 UNK        -0.5105 
     52 CA        -78.4899   22.2793  -73.3275 C.3       4 UNK         0.0263 
     53 CB        -79.1330   22.0360  -71.9495 C.3       4 UNK        -0.1981 
     54 N         -79.5146   22.3938  -74.3568 N.am      4 UNK        -0.4224 
     55 C         -80.1575   21.3931  -74.9663 C.2       3 UNK         0.4895 
     56 O         -80.0055   20.2051  -74.6800 O.2       3 UNK        -0.5091 
     57 CA        -81.1369   21.7789  -76.0902 C.3       3 UNK         0.0250 
     58 CB        -82.5881   21.7194  -75.5855 C.3       3 UNK        -0.1996 
     59 N         -80.8764   23.1112  -76.6477 N.am      3 UNK        -0.4254 
     60 C         -79.8990   23.3851  -77.5281 C.2       2 UNK         0.5004 
     61 O         -79.1354   22.5315  -77.9792 O.2       2 UNK        -0.5226 
     62 CA        -79.7284   24.8445  -77.9822 C.3       2 UNK         0.0269 
     63 CB        -80.4078   25.0667  -79.3434 C.3       2 UNK        -0.1926 
     64 N         -80.2909   25.7792  -77.0075 N.am      2 UNK        -0.4687 
     65 C         -79.6062   26.7062  -76.3311 C.2       1 UNK         0.5165 
     66 O         -78.4181   26.9638  -76.5343 O.2       1 UNK        -0.5079 
     67 H67       -82.7095   25.0291  -72.3218 H         1 UNK         0.0900 
     68 H68       -80.9619   25.0549  -72.0682 H         1 UNK         0.0900 
     69 H69       -81.7043   23.7337  -72.9713 H         1 UNK         0.0900 
     70 H70       -80.0957   26.6940  -73.2984 H         1 UNK         0.2959 
     71 H71       -81.3422   27.7592  -75.6827 H         1 UNK         0.1079 
     72 H72       -78.7642   28.4798  -74.1890 H         1 UNK         0.0837 
     73 H73       -79.3292   29.3154  -75.6064 H         1 UNK         0.0837 
     74 H74       -81.0134   30.0014  -71.4008 H         1 UNK         0.0685 
     75 H75       -80.8625   28.3405  -71.9084 H         1 UNK         0.0685 
     76 H76       -79.1265   27.5583  -70.4836 H         1 UNK         0.1434 
     77 H77       -75.2738   29.4112  -70.4890 H         1 UNK         0.1329 
     78 H78       -78.5167   31.2102  -72.6477 H         1 UNK         0.1335 
     79 H79       -76.1406   31.8100  -73.1676 H         1 UNK         0.0680 
     80 H80       -76.1987   32.4922  -71.5600 H         1 UNK         0.0680 
     81 H81       -73.8556   30.5166  -74.1552 H         1 UNK         0.1032 
     82 H82       -74.6023   29.3073  -73.1499 H         1 UNK         0.1032 
     83 H83       -71.7086   30.1626  -72.7135 H         1 UNK         0.0461 
     84 H84       -72.3530   26.4186  -71.2665 H         1 UNK         0.3453 
     85 H85       -72.4598   26.6948  -72.9858 H         1 UNK         0.3453 
     86 H86       -72.6568   28.4380  -74.8730 H         1 UNK         0.2984 
     87 H87       -69.3721   28.2648  -76.2529 H         1 UNK         0.0554 
     88 H88       -70.1651   25.9549  -76.7662 H         1 UNK         0.0847 
     89 H89       -71.3667   26.0673  -75.4810 H         1 UNK         0.0847 
     90 H90       -69.6536   26.0929  -75.0914 H         1 UNK         0.0847 
     91 H91       -72.2811   27.9676  -76.8561 H         1 UNK         0.3141 
     92 H92       -72.2974   30.7154  -79.0492 H         1 UNK         0.0743 
     93 H93       -71.1875   29.1061  -80.5999 H         1 UNK         0.0784 
     94 H94       -72.1906   27.7974  -79.9909 H         1 UNK         0.0784 
     95 H95       -72.9214   29.1428  -80.8686 H         1 UNK         0.0784 
     96 H96       -74.1138   28.5079  -78.6071 H         1 UNK         0.3213 
     97 H97       -75.6891   29.8394  -75.7386 H         1 UNK         0.0855 
     98 H98       -76.7194   31.2342  -77.5366 H         1 UNK         0.0814 
     99 H99       -77.7343   29.8561  -77.1533 H         1 UNK         0.0814 
    100 H100      -76.7529   29.8446  -78.6140 H         1 UNK         0.0814 
    101 H101      -76.6842   27.7033  -77.0281 H         1 UNK         0.3105 
    102 H102      -76.2189   25.6047  -76.9473 H         1 UNK         0.0547 
    103 H103      -74.0947   25.1451  -78.0959 H         1 UNK         0.0837 
    104 H104      -73.2695   24.8681  -76.5742 H         1 UNK         0.0837 
    105 H105      -74.5433   23.7703  -77.0992 H         1 UNK         0.0837 
    106 H106      -76.6223   25.0820  -74.8344 H         1 UNK         0.3020 
    107 H107      -74.7054   24.2383  -71.9956 H         1 UNK         0.1245 
    108 H108      -76.7914   26.4055  -72.5691 H         1 UNK         0.0781 
    109 H109      -75.2317   26.6408  -71.8297 H         1 UNK         0.0781 
    110 H110      -77.1178   27.2447  -68.5726 H         1 UNK         0.0836 
    111 H111      -75.5388   27.4118  -69.3008 H         1 UNK         0.0836 
    112 H112      -76.1814   22.6638  -72.3589 H         1 UNK         0.3022 
    113 H113      -77.8240   21.4511  -73.5793 H         1 UNK         0.0747 
    114 H114      -79.7424   21.1322  -71.9466 H         1 UNK         0.0793 
    115 H115      -78.3714   21.9130  -71.1787 H         1 UNK         0.0793 
    116 H116      -79.7673   22.8687  -71.6461 H         1 UNK         0.0793 
    117 H117      -79.6429   23.3418  -74.6888 H         1 UNK         0.3047 
    118 H118      -81.0254   21.0393  -76.8863 H         1 UNK         0.0822 
    119 H119      -83.2956   21.9133  -76.3919 H         1 UNK         0.0807 
    120 H120      -82.7744   22.4474  -74.7956 H         1 UNK         0.0807 
    121 H121      -82.8216   20.7332  -75.1817 H         1 UNK         0.0807 
    122 H122      -81.4617   23.8620  -76.3001 H         1 UNK         0.2946 
    123 H123      -78.6559   25.0167  -78.0990 H         1 UNK         0.1144 
    124 H124      -80.2443   26.0823  -79.7044 H         1 UNK         0.0793 
    125 H125      -81.4842   24.8987  -79.2908 H         1 UNK         0.0793 
    126 H126      -80.0064   24.3871  -80.0965 H         1 UNK         0.0793 
    127 H127      -81.2533   25.6293  -76.7235 H         1 UNK         0.2896 
@<TRIPOS>BOND
     1    1    2 1    
     2    1   67 1    
     3    1   68 1    
     4    1   69 1    
     5    2    3 2    
     6    2    4 am   BACKBONE|DICT|INTERRES
     7    4    5 1    
     8    4   70 1    
     9    5    6 1    
    10    5   65 1    
    11    5   71 1    
    12    6    7 1    
    13    6   72 1    
    14    6   73 1    
    15    7    8 1    
    16    8    9 1    
    17    8   74 1    
    18    8   75 1    
    19    9   10 ar   
    20    9   14 ar   
    21   10   11 ar   
    22   10   76 1    
    23   11   12 ar   
    24   11   48 1    
    25   12   13 ar   
    26   12   77 1    
    27   13   14 ar   
    28   13   15 1    
    29   14   78 1    
    30   15   16 1    
    31   15   79 1    
    32   15   80 1    
    33   16   17 1    
    34   17   18 1    
    35   17   81 1    
    36   17   82 1    
    37   18   19 1    
    38   18   22 1    
    39   18   83 1    
    40   19   20 am   BACKBONE|DICT|INTERRES
    41   19   21 2    
    42   20   84 1    
    43   20   85 1    
    44   22   23 am   BACKBONE|DICT|INTERRES
    45   22   86 1    
    46   23   24 2    
    47   23   25 1    
    48   25   26 1    
    49   25   27 1    
    50   25   87 1    
    51   26   88 1    
    52   26   89 1    
    53   26   90 1    
    54   27   28 am   BACKBONE|DICT|INTERRES
    55   27   91 1    
    56   28   29 2    
    57   28   30 1    
    58   30   31 1    
    59   30   32 1    
    60   30   92 1    
    61   31   93 1    
    62   31   94 1    
    63   31   95 1    
    64   32   33 am   BACKBONE|DICT|INTERRES
    65   32   96 1    
    66   33   34 2    
    67   33   35 1    
    68   35   36 1    
    69   35   37 1    
    70   35   97 1    
    71   36   98 1    
    72   36   99 1    
    73   36  100 1    
    74   37   38 am   BACKBONE|DICT|INTERRES
    75   37  101 1    
    76   38   39 2    
    77   38   40 1    
    78   40   41 1    
    79   40   42 1    
    80   40  102 1    
    81   41  103 1    
    82   41  104 1    
    83   41  105 1    
    84   42   43 am   BACKBONE|DICT|INTERRES
    85   42  106 1    
    86   43   44 2    
    87   43   45 1    
    88   45   46 1    
    89   45   49 1    
    90   45  107 1    
    91   46   47 1    
    92   46  108 1    
    93   46  109 1    
    94   47   48 1    
    95   48  110 1    
    96   48  111 1    
    97   49   50 am   BACKBONE|DICT|INTERRES
    98   49  112 1    
    99   50   51 2    
   100   50   52 1    
   101   52   53 1    
   102   52   54 1    
   103   52  113 1    
   104   53  114 1    
   105   53  115 1    
   106   53  116 1    
   107   54   55 am   BACKBONE|DICT|INTERRES
   108   54  117 1    
   109   55   56 2    
   110   55   57 1    
   111   57   58 1    
   112   57   59 1    
   113   57  118 1    
   114   58  119 1    
   115   58  120 1    
   116   58  121 1    
   117   59   60 am   BACKBONE|DICT|INTERRES
   118   59  122 1    
   119   60   61 2    
   120   60   62 1    
   121   62   63 1    
   122   62   64 1    
   123   62  123 1    
   124   63  124 1    
   125   63  125 1    
   126   63  126 1    
   127   64   65 am   BACKBONE|DICT|INTERRES
   128   64  127 1    
   129   65   66 2    
@<TRIPOS>SUBSTRUCTURE
     1 UNK         1 GROUP             0       ****    0 ROOT    
