@<TRIPOS>MOLECULE
3R135
127   129    1
SMALL
USER_CHARGES


@<TRIPOS>ATOM
      1 CA        -80.0067   26.9416  -70.9829 C.3       0 UNK        -0.1998 
      2 C         -80.9742   27.7469  -71.8339 C.2       0 UNK         0.4909 
      3 O         -82.1311   27.9226  -71.4506 O.2       0 UNK        -0.5240 
      4 N         -80.5093   28.2310  -72.9930 N.am      1 UNK        -0.4739 
      5 CA        -81.3161   28.9686  -73.9742 C.3       1 UNK         0.0864 
      6 C6        -80.4340   29.7097  -75.0120 C.3       11 UNK        -0.0881 
      7 S7        -79.3279   28.6078  -75.9682 S.3       11 UNK        -0.2682 
      8 C8        -77.6787   29.2161  -75.5045 C.3       11 UNK         0.0289 
      9 C9        -77.3533   28.9590  -74.0405 C.ar      11 UNK        -0.0687 
     10 C10       -77.0965   27.6585  -73.5997 C.ar      11 UNK        -0.0823 
     11 C11       -76.7448   27.4149  -72.2682 C.ar      11 UNK        -0.0830 
     12 C12       -76.6792   28.4827  -71.3693 C.ar      11 UNK        -0.1021 
     13 C13       -76.9645   29.7847  -71.7913 C.ar      11 UNK        -0.0753 
     14 C14       -77.2910   30.0184  -73.1304 C.ar      11 UNK        -0.0933 
     15 C15       -76.9589   30.9344  -70.7936 C.3       11 UNK         0.0166 
     16 S16       -75.5165   32.0269  -70.9904 S.3       11 UNK        -0.2615 
     17 C17       -74.1422   30.9452  -70.4621 C.3       11 UNK        -0.0865 
     18 CA        -73.0636   30.7719  -71.5638 C.3       10 UNK         0.0862 
     19 C         -71.8308   29.9796  -71.0321 C.2       10 UNK         0.5551 
     20 N         -71.3807   28.9085  -71.6753 N.am      10 UNK        -0.7319 
     21 O         -71.2608   30.3535  -70.0098 O.2       10 UNK        -0.5018 
     22 N         -73.6370   30.2437  -72.8113 N.am      10 UNK        -0.4509 
     23 C         -73.1115   30.4301  -74.0254 C.2       10 UNK         0.4899 
     24 O         -72.1276   31.1360  -74.2586 O.2       10 UNK        -0.4839 
     25 CA        -73.8051   29.6904  -75.1800 C.3       9 UNK         0.0222 
     26 CB        -74.5318   30.6853  -76.0988 C.3       9 UNK        -0.1966 
     27 N         -72.8734   28.8905  -75.9779 N.am      9 UNK        -0.4218 
     28 C         -72.0319   27.9552  -75.5163 C.2       9 UNK         0.5020 
     29 O         -71.9040   27.6810  -74.3217 O.2       9 UNK        -0.5274 
     30 CA        -71.2154   27.1839  -76.5721 C.3       8 UNK         0.0270 
     31 CB        -70.4307   26.0033  -75.9686 C.3       8 UNK        -0.1976 
     32 N         -72.0640   26.6882  -77.6616 N.am      8 UNK        -0.4313 
     33 C         -72.4464   27.4139  -78.7226 C.2       8 UNK         0.5041 
     34 O         -72.1353   28.5961  -78.8744 O.2       8 UNK        -0.5577 
     35 CA        -73.3394   26.7383  -79.7788 C.3       7 UNK         0.0284 
     36 CB        -72.4860   26.2148  -80.9453 C.3       7 UNK        -0.1958 
     37 N         -74.1569   25.6447  -79.2502 N.am      7 UNK        -0.4454 
     38 C         -75.1758   25.7965  -78.3937 C.2       7 UNK         0.5089 
     39 O         -75.5531   26.8878  -77.9653 O.2       7 UNK        -0.5125 
     40 CA        -75.8889   24.5186  -77.9091 C.3       6 UNK         0.0408 
     41 CB        -75.5235   23.2399  -78.6969 C.3       6 UNK        -0.1791 
     42 N         -75.6827   24.3109  -76.4739 N.am      6 UNK        -0.4762 
     43 C         -74.5093   24.2017  -75.8267 C.2       6 UNK         0.5007 
     44 O         -73.4102   24.2298  -76.3832 O.2       6 UNK        -0.5032 
     45 CA        -74.5852   24.0565  -74.2936 C.3       5 UNK         0.0783 
     46 C46       -74.3965   25.4467  -73.6350 C.3       11 UNK        -0.0857 
     47 S47       -74.7313   25.5167  -71.8418 S.3       11 UNK        -0.2512 
     48 C48       -76.4911   25.9936  -71.7848 C.3       11 UNK         0.0225 
     49 N         -75.8288   23.3906  -73.8937 N.am      5 UNK        -0.4615 
     50 C         -76.0361   22.0714  -73.9388 C.2       4 UNK         0.5053 
     51 O         -75.1856   21.2544  -74.2917 O.2       4 UNK        -0.5105 
     52 CA        -77.4336   21.5793  -73.5298 C.3       4 UNK         0.0263 
     53 CB        -77.8125   22.0156  -72.0985 C.3       4 UNK        -0.1981 
     54 N         -78.4817   21.9248  -74.4993 N.am      4 UNK        -0.4224 
     55 C         -78.9416   23.1355  -74.8489 C.2       3 UNK         0.4895 
     56 O         -78.5081   24.1968  -74.3923 O.2       3 UNK        -0.5091 
     57 CA        -80.0815   23.1786  -75.8801 C.3       3 UNK         0.0250 
     58 CB        -80.7798   21.8166  -76.1111 C.3       3 UNK        -0.1996 
     59 N         -81.0485   24.1867  -75.4506 N.am      3 UNK        -0.4254 
     60 C         -81.9708   24.7670  -76.2291 C.2       2 UNK         0.5004 
     61 O         -82.1179   24.5197  -77.4264 O.2       2 UNK        -0.5226 
     62 CA        -82.8675   25.8152  -75.5622 C.3       2 UNK         0.0269 
     63 CB        -83.8923   25.1656  -74.6142 C.3       2 UNK        -0.1926 
     64 N         -82.0528   26.7934  -74.8451 N.am      2 UNK        -0.4687 
     65 C         -82.3733   28.0813  -74.6688 C.2       1 UNK         0.5165 
     66 O         -83.4408   28.5782  -75.0325 O.2       1 UNK        -0.5079 
     67 H67       -79.3491   27.6070  -70.4244 H         1 UNK         0.0900 
     68 H68       -79.3988   26.2854  -71.6043 H         1 UNK         0.0900 
     69 H69       -80.5474   26.3190  -70.2704 H         1 UNK         0.0900 
     70 H70       -79.5401   28.0894  -73.2466 H         1 UNK         0.2959 
     71 H71       -81.8748   29.7288  -73.4231 H         1 UNK         0.1079 
     72 H72       -81.0594   30.2606  -75.7173 H         1 UNK         0.0837 
     73 H73       -79.8413   30.4710  -74.5039 H         1 UNK         0.0837 
     74 H74       -76.9374   28.7123  -76.1268 H         1 UNK         0.0685 
     75 H75       -77.6083   30.2786  -75.7417 H         1 UNK         0.0685 
     76 H76       -77.1715   26.8372  -74.3002 H         1 UNK         0.1434 
     77 H77       -76.4287   28.2942  -70.3342 H         1 UNK         0.1329 
     78 H78       -77.5000   31.0273  -73.4592 H         1 UNK         0.1335 
     79 H79       -77.8656   31.5261  -70.9280 H         1 UNK         0.0680 
     80 H80       -76.9915   30.5611  -69.7687 H         1 UNK         0.0680 
     81 H81       -74.5236   29.9729  -70.1476 H         1 UNK         0.1032 
     82 H82       -73.7040   31.3943  -69.5688 H         1 UNK         0.1032 
     83 H83       -72.6821   31.7710  -71.7838 H         1 UNK         0.0461 
     84 H84       -70.5813   28.4191  -71.3073 H         1 UNK         0.3453 
     85 H85       -71.7986   28.5947  -72.5455 H         1 UNK         0.3453 
     86 H86       -74.4530   29.6568  -72.7080 H         1 UNK         0.2984 
     87 H87       -74.5415   28.9990  -74.7664 H         1 UNK         0.0554 
     88 H88       -75.0704   30.1729  -76.8961 H         1 UNK         0.0847 
     89 H89       -73.8359   31.3857  -76.5628 H         1 UNK         0.0847 
     90 H90       -75.2589   31.2737  -75.5377 H         1 UNK         0.0847 
     91 H91       -72.8647   29.0569  -76.9783 H         1 UNK         0.3141 
     92 H92       -70.4848   27.8849  -76.9815 H         1 UNK         0.0743 
     93 H93       -69.7296   26.3490  -75.2079 H         1 UNK         0.0784 
     94 H94       -71.0926   25.2780  -75.4943 H         1 UNK         0.0784 
     95 H95       -69.8499   25.4813  -76.7291 H         1 UNK         0.0784 
     96 H96       -72.4369   25.7514  -77.5474 H         1 UNK         0.3213 
     97 H97       -74.0155   27.5031  -80.1677 H         1 UNK         0.0855 
     98 H98       -71.8858   27.0162  -81.3789 H         1 UNK         0.0814 
     99 H99       -73.1084   25.8115  -81.7443 H         1 UNK         0.0814 
    100 H100      -71.7986   25.4310  -80.6244 H         1 UNK         0.0814 
    101 H101      -73.9045   24.7085  -79.5318 H         1 UNK         0.3105 
    102 H102      -76.9568   24.6954  -78.0463 H         1 UNK         0.0547 
    103 H103      -75.7192   23.3626  -79.7631 H         1 UNK         0.0837 
    104 H104      -74.4762   22.9603  -78.5778 H         1 UNK         0.0837 
    105 H105      -76.1241   22.3943  -78.3616 H         1 UNK         0.0837 
    106 H106      -76.5217   24.3137  -75.9103 H         1 UNK         0.3020 
    107 H107      -73.7485   23.4242  -73.9866 H         1 UNK         0.1245 
    108 H108      -74.9680   26.2183  -74.1469 H         1 UNK         0.0781 
    109 H109      -73.3549   25.7381  -73.7586 H         1 UNK         0.0781 
    110 H110      -76.8399   25.8918  -70.7561 H         1 UNK         0.0836 
    111 H111      -77.0870   25.2925  -72.3661 H         1 UNK         0.0836 
    112 H112      -76.6199   23.9800  -73.6660 H         1 UNK         0.3022 
    113 H113      -77.3837   20.4890  -73.5248 H         1 UNK         0.0747 
    114 H114      -78.7274   21.5229  -71.7694 H         1 UNK         0.0793 
    115 H115      -77.0287   21.7468  -71.3889 H         1 UNK         0.0793 
    116 H116      -77.9704   23.0900  -72.0143 H         1 UNK         0.0793 
    117 H117      -78.9022   21.1307  -74.9619 H         1 UNK         0.3047 
    118 H118      -79.6364   23.5076  -76.8214 H         1 UNK         0.0822 
    119 H119      -81.5852   21.9006  -76.8407 H         1 UNK         0.0807 
    120 H120      -81.2139   21.4227  -75.1910 H         1 UNK         0.0807 
    121 H121      -80.0878   21.0718  -76.5056 H         1 UNK         0.0807 
    122 H122      -80.9688   24.4608  -74.4812 H         1 UNK         0.2946 
    123 H123      -83.4111   26.3232  -76.3628 H         1 UNK         0.1144 
    124 H124      -84.5915   25.9048  -74.2229 H         1 UNK         0.0793 
    125 H125      -83.4103   24.6813  -73.7643 H         1 UNK         0.0793 
    126 H126      -84.4801   24.4081  -75.1344 H         1 UNK         0.0793 
    127 H127      -81.1233   26.5043  -74.5751 H         1 UNK         0.2896 
@<TRIPOS>BOND
     1    1    2 1    
     2    1   67 1    
     3    1   68 1    
     4    1   69 1    
     5    2    3 2    
     6    2    4 am   BACKBONE|DICT|INTERRES
     7    4    5 1    
     8    4   70 1    
     9    5    6 1    
    10    5   65 1    
    11    5   71 1    
    12    6    7 1    
    13    6   72 1    
    14    6   73 1    
    15    7    8 1    
    16    8    9 1    
    17    8   74 1    
    18    8   75 1    
    19    9   10 ar   
    20    9   14 ar   
    21   10   11 ar   
    22   10   76 1    
    23   11   12 ar   
    24   11   48 1    
    25   12   13 ar   
    26   12   77 1    
    27   13   14 ar   
    28   13   15 1    
    29   14   78 1    
    30   15   16 1    
    31   15   79 1    
    32   15   80 1    
    33   16   17 1    
    34   17   18 1    
    35   17   81 1    
    36   17   82 1    
    37   18   19 1    
    38   18   22 1    
    39   18   83 1    
    40   19   20 am   BACKBONE|DICT|INTERRES
    41   19   21 2    
    42   20   84 1    
    43   20   85 1    
    44   22   23 am   BACKBONE|DICT|INTERRES
    45   22   86 1    
    46   23   24 2    
    47   23   25 1    
    48   25   26 1    
    49   25   27 1    
    50   25   87 1    
    51   26   88 1    
    52   26   89 1    
    53   26   90 1    
    54   27   28 am   BACKBONE|DICT|INTERRES
    55   27   91 1    
    56   28   29 2    
    57   28   30 1    
    58   30   31 1    
    59   30   32 1    
    60   30   92 1    
    61   31   93 1    
    62   31   94 1    
    63   31   95 1    
    64   32   33 am   BACKBONE|DICT|INTERRES
    65   32   96 1    
    66   33   34 2    
    67   33   35 1    
    68   35   36 1    
    69   35   37 1    
    70   35   97 1    
    71   36   98 1    
    72   36   99 1    
    73   36  100 1    
    74   37   38 am   BACKBONE|DICT|INTERRES
    75   37  101 1    
    76   38   39 2    
    77   38   40 1    
    78   40   41 1    
    79   40   42 1    
    80   40  102 1    
    81   41  103 1    
    82   41  104 1    
    83   41  105 1    
    84   42   43 am   BACKBONE|DICT|INTERRES
    85   42  106 1    
    86   43   44 2    
    87   43   45 1    
    88   45   46 1    
    89   45   49 1    
    90   45  107 1    
    91   46   47 1    
    92   46  108 1    
    93   46  109 1    
    94   47   48 1    
    95   48  110 1    
    96   48  111 1    
    97   49   50 am   BACKBONE|DICT|INTERRES
    98   49  112 1    
    99   50   51 2    
   100   50   52 1    
   101   52   53 1    
   102   52   54 1    
   103   52  113 1    
   104   53  114 1    
   105   53  115 1    
   106   53  116 1    
   107   54   55 am   BACKBONE|DICT|INTERRES
   108   54  117 1    
   109   55   56 2    
   110   55   57 1    
   111   57   58 1    
   112   57   59 1    
   113   57  118 1    
   114   58  119 1    
   115   58  120 1    
   116   58  121 1    
   117   59   60 am   BACKBONE|DICT|INTERRES
   118   59  122 1    
   119   60   61 2    
   120   60   62 1    
   121   62   63 1    
   122   62   64 1    
   123   62  123 1    
   124   63  124 1    
   125   63  125 1    
   126   63  126 1    
   127   64   65 am   BACKBONE|DICT|INTERRES
   128   64  127 1    
   129   65   66 2    
@<TRIPOS>SUBSTRUCTURE
     1 UNK         1 GROUP             0       ****    0 ROOT    
