@<TRIPOS>MOLECULE
3R135
127   129    1
SMALL
USER_CHARGES


@<TRIPOS>ATOM
      1 CA        -85.2466   29.4901  -74.1948 C.3       0 UNK        -0.1998 
      2 C         -83.8837   29.4409  -74.8689 C.2       0 UNK         0.4909 
      3 O         -83.7849   29.7020  -76.0680 O.2       0 UNK        -0.5240 
      4 N         -82.8343   29.1164  -74.1033 N.am      1 UNK        -0.4739 
      5 CA        -81.4531   28.9538  -74.5716 C.3       1 UNK         0.0864 
      6 C6        -80.4364   28.9245  -73.3986 C.3       11 UNK        -0.0881 
      7 S7        -80.9167   27.8167  -72.0217 S.3       11 UNK        -0.2682 
      8 C8        -80.1880   28.6776  -70.5960 C.3       11 UNK         0.0289 
      9 C9        -78.6802   28.4915  -70.5583 C.ar      11 UNK        -0.0687 
     10 C10       -78.1399   27.3108  -70.0432 C.ar      11 UNK        -0.0823 
     11 C11       -76.7562   27.1190  -70.0082 C.ar      11 UNK        -0.0830 
     12 C12       -75.9093   28.1241  -70.4862 C.ar      11 UNK        -0.1021 
     13 C13       -76.4398   29.3099  -71.0033 C.ar      11 UNK        -0.0753 
     14 C14       -77.8261   29.4892  -71.0366 C.ar      11 UNK        -0.0933 
     15 C15       -75.5186   30.4046  -71.5144 C.3       11 UNK         0.0166 
     16 S16       -75.2589   30.2696  -73.3094 S.3       11 UNK        -0.2615 
     17 C17       -74.2838   31.7868  -73.6122 C.3       11 UNK        -0.0865 
     18 CA        -72.7850   31.5446  -73.9321 C.3       10 UNK         0.0862 
     19 C         -71.9850   31.0040  -72.7131 C.2       10 UNK         0.5551 
     20 N         -71.7265   31.8496  -71.7245 N.am      10 UNK        -0.7319 
     21 O         -71.6202   29.8322  -72.6388 O.2       10 UNK        -0.5018 
     22 N         -72.6241   30.7220  -75.1364 N.am      10 UNK        -0.4509 
     23 C         -71.5491   30.7356  -75.9320 C.2       10 UNK         0.4899 
     24 O         -70.5919   31.4988  -75.7880 O.2       10 UNK        -0.4839 
     25 CA        -71.5708   29.7170  -77.0831 C.3       9 UNK         0.0222 
     26 CB        -70.4008   29.8844  -78.0770 C.3       9 UNK        -0.1966 
     27 N         -71.6592   28.3426  -76.5798 N.am      9 UNK        -0.4218 
     28 C         -70.7455   27.6686  -75.8589 C.2       9 UNK         0.5020 
     29 O         -69.6493   28.1279  -75.5349 O.2       9 UNK        -0.5274 
     30 CA        -71.0940   26.2297  -75.4186 C.3       8 UNK         0.0270 
     31 CB        -71.3136   26.1781  -73.8972 C.3       8 UNK        -0.1976 
     32 N         -72.2702   25.6700  -76.0919 N.am      8 UNK        -0.4313 
     33 C         -72.3272   25.3496  -77.3949 C.2       8 UNK         0.5041 
     34 O         -71.3423   25.3507  -78.1344 O.2       8 UNK        -0.5577 
     35 CA        -73.7084   25.0170  -77.9991 C.3       7 UNK         0.0284 
     36 CB        -73.8217   23.5104  -78.2798 C.3       7 UNK        -0.1958 
     37 N         -74.8509   25.4540  -77.1859 N.am      7 UNK        -0.4454 
     38 C         -75.1071   26.7246  -76.8337 C.2       7 UNK         0.5089 
     39 O         -74.4578   27.6856  -77.2484 O.2       7 UNK        -0.5125 
     40 CA        -76.2058   26.9707  -75.7822 C.3       6 UNK         0.0408 
     41 CB        -77.4713   27.5402  -76.4370 C.3       6 UNK        -0.1791 
     42 N         -76.5447   25.8048  -74.9525 N.am      6 UNK        -0.4762 
     43 C         -75.6782   25.1881  -74.1292 C.2       6 UNK         0.5007 
     44 O         -74.4851   25.4887  -74.0733 O.2       6 UNK        -0.5032 
     45 CA        -76.1871   24.0144  -73.2709 C.3       5 UNK         0.0783 
     46 C46       -76.7238   24.4738  -71.8939 C.3       11 UNK        -0.0857 
     47 S47       -75.3595   24.8247  -70.7309 S.3       11 UNK        -0.2512 
     48 C48       -76.1824   25.8241  -69.4518 C.3       11 UNK         0.0225 
     49 N         -77.1652   23.2101  -74.0064 N.am      5 UNK        -0.4615 
     50 C         -77.0489   21.8896  -74.2084 C.2       4 UNK         0.5053 
     51 O         -76.1751   21.1917  -73.6924 O.2       4 UNK        -0.5105 
     52 CA        -78.0575   21.2175  -75.1610 C.3       4 UNK         0.0263 
     53 CB        -79.1867   20.5510  -74.3582 C.3       4 UNK        -0.1981 
     54 N         -78.6474   22.1176  -76.1549 N.am      4 UNK        -0.4224 
     55 C         -77.9731   22.8569  -77.0480 C.2       3 UNK         0.4895 
     56 O         -76.7515   22.8262  -77.1851 O.2       3 UNK        -0.5091 
     57 CA        -78.7912   23.8451  -77.8960 C.3       3 UNK         0.0250 
     58 CB        -79.0769   23.2468  -79.2824 C.3       3 UNK        -0.1996 
     59 N         -80.0546   24.2855  -77.2877 N.am      3 UNK        -0.4254 
     60 C         -80.1950   24.8733  -76.0899 C.2       2 UNK         0.5004 
     61 O         -79.2686   25.0488  -75.2911 O.2       2 UNK        -0.5226 
     62 CA        -81.6287   25.2706  -75.7000 C.3       2 UNK         0.0269 
     63 CB        -82.2528   24.1853  -74.8081 C.3       2 UNK        -0.1926 
     64 N         -81.6869   26.5532  -74.9981 N.am      2 UNK        -0.4687 
     65 C         -81.3070   27.7344  -75.5045 C.2       1 UNK         0.5165 
     66 O         -80.8959   27.8894  -76.6557 O.2       1 UNK        -0.5079 
     67 H67       -85.1866   29.2440  -73.1347 H         1 UNK         0.0900 
     68 H68       -85.9253   28.7817  -74.6692 H         1 UNK         0.0900 
     69 H69       -85.6753   30.4876  -74.2874 H         1 UNK         0.0900 
     70 H70       -82.9771   28.9074  -73.1248 H         1 UNK         0.2959 
     71 H71       -81.2154   29.8297  -75.1803 H         1 UNK         0.1079 
     72 H72       -80.3359   29.9371  -73.0057 H         1 UNK         0.0837 
     73 H73       -79.4379   28.6475  -73.7428 H         1 UNK         0.0837 
     74 H74       -80.4526   29.7358  -70.6203 H         1 UNK         0.0685 
     75 H75       -80.6272   28.2764  -69.6813 H         1 UNK         0.0685 
     76 H76       -78.8024   26.5368  -69.6800 H         1 UNK         0.1434 
     77 H77       -74.8378   27.9775  -70.4646 H         1 UNK         0.1329 
     78 H78       -78.2385   30.4042  -71.4393 H         1 UNK         0.1335 
     79 H79       -74.5548   30.3575  -71.0047 H         1 UNK         0.0680 
     80 H80       -75.9464   31.3804  -71.2791 H         1 UNK         0.0680 
     81 H81       -74.7462   32.3085  -74.4515 H         1 UNK         0.1032 
     82 H82       -74.3850   32.4712  -72.7682 H         1 UNK         0.1032 
     83 H83       -72.3584   32.5236  -74.1615 H         1 UNK         0.0461 
     84 H84       -72.0140   32.8146  -71.7707 H         1 UNK         0.3453 
     85 H85       -71.2162   31.5185  -70.9208 H         1 UNK         0.3453 
     86 H86       -73.3452   30.0331  -75.2944 H         1 UNK         0.2984 
     87 H87       -72.4929   29.8952  -77.6386 H         1 UNK         0.0554 
     88 H88       -70.4633   29.1589  -78.8881 H         1 UNK         0.0847 
     89 H89       -69.4303   29.7649  -77.5947 H         1 UNK         0.0847 
     90 H90       -70.4153   30.8774  -78.5276 H         1 UNK         0.0847 
     91 H91       -72.5437   27.8817  -76.7740 H         1 UNK         0.3141 
     92 H92       -70.2365   25.5988  -75.6615 H         1 UNK         0.0743 
     93 H93       -71.5353   25.1658  -73.5586 H         1 UNK         0.0784 
     94 H94       -70.4239   26.5124  -73.3620 H         1 UNK         0.0784 
     95 H95       -72.1371   26.8239  -73.5882 H         1 UNK         0.0784 
     96 H96       -73.1186   25.6149  -75.5340 H         1 UNK         0.3213 
     97 H97       -73.7682   25.5450  -78.9531 H         1 UNK         0.0855 
     98 H98       -72.9698   23.1518  -78.8593 H         1 UNK         0.0814 
     99 H99       -74.7175   23.2827  -78.8574 H         1 UNK         0.0814 
    100 H100      -73.8581   22.9293  -77.3574 H         1 UNK         0.0814 
    101 H101      -75.4416   24.7224  -76.8101 H         1 UNK         0.3105 
    102 H102      -75.8191   27.7341  -75.1040 H         1 UNK         0.0547 
    103 H103      -77.2459   28.4456  -77.0019 H         1 UNK         0.0837 
    104 H104      -77.9300   26.8335  -77.1265 H         1 UNK         0.0837 
    105 H105      -78.2149   27.8065  -75.6874 H         1 UNK         0.0837 
    106 H106      -77.5213   25.5176  -74.9703 H         1 UNK         0.3020 
    107 H107      -75.3024   23.3988  -73.0897 H         1 UNK         0.1245 
    108 H108      -77.3323   23.6871  -71.4449 H         1 UNK         0.0781 
    109 H109      -77.3797   25.3393  -72.0009 H         1 UNK         0.0781 
    110 H110      -75.4596   26.0610  -68.6699 H         1 UNK         0.0836 
    111 H111      -76.9592   25.2226  -68.9770 H         1 UNK         0.0836 
    112 H112      -77.9205   23.7106  -74.4617 H         1 UNK         0.3022 
    113 H113      -77.5172   20.4414  -75.7069 H         1 UNK         0.0747 
    114 H114      -79.8560   19.9852  -75.0065 H         1 UNK         0.0793 
    115 H115      -78.7840   19.8519  -73.6237 H         1 UNK         0.0793 
    116 H116      -79.7835   21.2856  -73.8156 H         1 UNK         0.0793 
    117 H117      -79.6503   22.2235  -76.1246 H         1 UNK         0.3047 
    118 H118      -78.1693   24.7304  -78.0347 H         1 UNK         0.0822 
    119 H119      -79.7260   22.3724  -79.2197 H         1 UNK         0.0807 
    120 H120      -78.1528   22.9321  -79.7702 H         1 UNK         0.0807 
    121 H121      -79.5537   23.9744  -79.9395 H         1 UNK         0.0807 
    122 H122      -80.8791   24.1645  -77.8587 H         1 UNK         0.2946 
    123 H123      -82.2275   25.3684  -76.6083 H         1 UNK         0.1144 
    124 H124      -82.2610   23.2180  -75.3122 H         1 UNK         0.0793 
    125 H125      -81.6986   24.0630  -73.8762 H         1 UNK         0.0793 
    126 H126      -83.2859   24.4245  -74.5549 H         1 UNK         0.0793 
    127 H127      -81.9670   26.5295  -74.0276 H         1 UNK         0.2896 
@<TRIPOS>BOND
     1    1    2 1    
     2    1   67 1    
     3    1   68 1    
     4    1   69 1    
     5    2    3 2    
     6    2    4 am   BACKBONE|DICT|INTERRES
     7    4    5 1    
     8    4   70 1    
     9    5    6 1    
    10    5   65 1    
    11    5   71 1    
    12    6    7 1    
    13    6   72 1    
    14    6   73 1    
    15    7    8 1    
    16    8    9 1    
    17    8   74 1    
    18    8   75 1    
    19    9   10 ar   
    20    9   14 ar   
    21   10   11 ar   
    22   10   76 1    
    23   11   12 ar   
    24   11   48 1    
    25   12   13 ar   
    26   12   77 1    
    27   13   14 ar   
    28   13   15 1    
    29   14   78 1    
    30   15   16 1    
    31   15   79 1    
    32   15   80 1    
    33   16   17 1    
    34   17   18 1    
    35   17   81 1    
    36   17   82 1    
    37   18   19 1    
    38   18   22 1    
    39   18   83 1    
    40   19   20 am   BACKBONE|DICT|INTERRES
    41   19   21 2    
    42   20   84 1    
    43   20   85 1    
    44   22   23 am   BACKBONE|DICT|INTERRES
    45   22   86 1    
    46   23   24 2    
    47   23   25 1    
    48   25   26 1    
    49   25   27 1    
    50   25   87 1    
    51   26   88 1    
    52   26   89 1    
    53   26   90 1    
    54   27   28 am   BACKBONE|DICT|INTERRES
    55   27   91 1    
    56   28   29 2    
    57   28   30 1    
    58   30   31 1    
    59   30   32 1    
    60   30   92 1    
    61   31   93 1    
    62   31   94 1    
    63   31   95 1    
    64   32   33 am   BACKBONE|DICT|INTERRES
    65   32   96 1    
    66   33   34 2    
    67   33   35 1    
    68   35   36 1    
    69   35   37 1    
    70   35   97 1    
    71   36   98 1    
    72   36   99 1    
    73   36  100 1    
    74   37   38 am   BACKBONE|DICT|INTERRES
    75   37  101 1    
    76   38   39 2    
    77   38   40 1    
    78   40   41 1    
    79   40   42 1    
    80   40  102 1    
    81   41  103 1    
    82   41  104 1    
    83   41  105 1    
    84   42   43 am   BACKBONE|DICT|INTERRES
    85   42  106 1    
    86   43   44 2    
    87   43   45 1    
    88   45   46 1    
    89   45   49 1    
    90   45  107 1    
    91   46   47 1    
    92   46  108 1    
    93   46  109 1    
    94   47   48 1    
    95   48  110 1    
    96   48  111 1    
    97   49   50 am   BACKBONE|DICT|INTERRES
    98   49  112 1    
    99   50   51 2    
   100   50   52 1    
   101   52   53 1    
   102   52   54 1    
   103   52  113 1    
   104   53  114 1    
   105   53  115 1    
   106   53  116 1    
   107   54   55 am   BACKBONE|DICT|INTERRES
   108   54  117 1    
   109   55   56 2    
   110   55   57 1    
   111   57   58 1    
   112   57   59 1    
   113   57  118 1    
   114   58  119 1    
   115   58  120 1    
   116   58  121 1    
   117   59   60 am   BACKBONE|DICT|INTERRES
   118   59  122 1    
   119   60   61 2    
   120   60   62 1    
   121   62   63 1    
   122   62   64 1    
   123   62  123 1    
   124   63  124 1    
   125   63  125 1    
   126   63  126 1    
   127   64   65 am   BACKBONE|DICT|INTERRES
   128   64  127 1    
   129   65   66 2    
@<TRIPOS>SUBSTRUCTURE
     1 UNK         1 GROUP             0       ****    0 ROOT    
