@<TRIPOS>MOLECULE
3R135
127   129    1
SMALL
USER_CHARGES


@<TRIPOS>ATOM
      1 CA        -85.5959   26.1904  -73.5645 C.3       0 UNK        -0.1998 
      2 C         -84.8939   27.1685  -74.4937 C.2       0 UNK         0.4909 
      3 O         -85.3296   27.3592  -75.6296 O.2       0 UNK        -0.5240 
      4 N         -83.7991   27.7825  -74.0291 N.am      1 UNK        -0.4739 
      5 CA        -82.9635   28.7487  -74.7561 C.3       1 UNK         0.0864 
      6 C6        -82.2426   29.7128  -73.7707 C.3       11 UNK        -0.0881 
      7 S7        -81.2756   28.8750  -72.4593 S.3       11 UNK        -0.2682 
      8 C8        -79.5943   29.5010  -72.8060 C.3       11 UNK         0.0289 
      9 C9        -78.4612   28.8128  -72.0402 C.ar      11 UNK        -0.0687 
     10 C10       -78.5948   27.5410  -71.4644 C.ar      11 UNK        -0.0823 
     11 C11       -77.5228   26.9398  -70.7971 C.ar      11 UNK        -0.0830 
     12 C12       -76.3004   27.6123  -70.7131 C.ar      11 UNK        -0.1021 
     13 C13       -76.1462   28.8747  -71.2928 C.ar      11 UNK        -0.0753 
     14 C14       -77.2279   29.4665  -71.9515 C.ar      11 UNK        -0.0933 
     15 C15       -74.8146   29.6040  -71.2016 C.3       11 UNK         0.0166 
     16 S16       -73.6650   29.0409  -72.4925 S.3       11 UNK        -0.2615 
     17 C17       -72.2372   30.1386  -72.2082 C.3       11 UNK        -0.0865 
     18 CA        -71.8915   30.9765  -73.4651 C.3       10 UNK         0.0862 
     19 C         -70.8776   32.0981  -73.1066 C.2       10 UNK         0.5551 
     20 N         -71.3615   33.2857  -72.7698 N.am      10 UNK        -0.7319 
     21 O         -69.6659   31.8886  -73.0868 O.2       10 UNK        -0.5018 
     22 N         -71.4080   30.1210  -74.5592 N.am      10 UNK        -0.4509 
     23 C         -71.1967   30.5190  -75.8173 C.2       10 UNK         0.4899 
     24 O         -71.5146   31.6317  -76.2393 O.2       10 UNK        -0.4839 
     25 CA        -70.5053   29.5351  -76.7827 C.3       9 UNK         0.0222 
     26 CB        -68.9751   29.7053  -76.7191 C.3       9 UNK        -0.1966 
     27 N         -70.8821   28.1185  -76.6569 N.am      9 UNK        -0.4218 
     28 C         -70.6968   27.2633  -75.6415 C.2       9 UNK         0.5020 
     29 O         -70.1972   27.5807  -74.5601 O.2       9 UNK        -0.5274 
     30 CA        -71.1465   25.8080  -75.8887 C.3       8 UNK         0.0270 
     31 CB        -70.9611   24.9066  -74.6534 C.3       8 UNK        -0.1976 
     32 N         -72.5379   25.7251  -76.3458 N.am      8 UNK        -0.4313 
     33 C         -72.9482   25.9440  -77.6043 C.2       8 UNK         0.5041 
     34 O         -72.1796   26.2712  -78.5102 O.2       8 UNK        -0.5577 
     35 CA        -74.4497   25.8099  -77.9198 C.3       7 UNK         0.0284 
     36 CB        -74.7449   24.4491  -78.5703 C.3       7 UNK        -0.1958 
     37 N         -75.3158   25.9820  -76.7546 N.am      7 UNK        -0.4454 
     38 C         -75.4762   27.1268  -76.0773 C.2       7 UNK         0.5089 
     39 O         -74.9555   28.1954  -76.3975 O.2       7 UNK        -0.5125 
     40 CA        -76.3562   27.0522  -74.8192 C.3       6 UNK         0.0408 
     41 CB        -77.8259   27.2853  -75.1967 C.3       6 UNK        -0.1791 
     42 N         -76.2312   25.7786  -74.1022 N.am      6 UNK        -0.4762 
     43 C         -75.1016   25.3129  -73.5476 C.2       6 UNK         0.5007 
     44 O         -74.0189   25.8898  -73.6110 O.2       6 UNK        -0.5032 
     45 CA        -75.1714   23.9277  -72.8779 C.3       5 UNK         0.0783 
     46 C46       -75.7339   23.9886  -71.4348 C.3       11 UNK        -0.0857 
     47 S47       -77.5464   24.2096  -71.3328 S.3       11 UNK        -0.2512 
     48 C48       -77.7047   25.5780  -70.1419 C.3       11 UNK         0.0225 
     49 N         -75.8756   22.9603  -73.7226 N.am      5 UNK        -0.4615 
     50 C         -75.4151   22.4980  -74.8933 C.2       4 UNK         0.5053 
     51 O         -74.2958   22.7523  -75.3364 O.2       4 UNK        -0.5105 
     52 CA        -76.3793   21.6346  -75.7264 C.3       4 UNK         0.0263 
     53 CB        -76.2182   20.1485  -75.3693 C.3       4 UNK        -0.1981 
     54 N         -77.7851   22.0279  -75.5733 N.am      4 UNK        -0.4224 
     55 C         -78.2834   23.2116  -75.9546 C.2       3 UNK         0.4895 
     56 O         -77.6177   24.0910  -76.5082 O.2       3 UNK        -0.5091 
     57 CA        -79.7529   23.4753  -75.6107 C.3       3 UNK         0.0250 
     58 CB        -79.9038   23.8035  -74.1104 C.3       3 UNK        -0.1996 
     59 N         -80.2337   24.5914  -76.4212 N.am      3 UNK        -0.4254 
     60 C         -81.5122   24.9530  -76.5639 C.2       2 UNK         0.5004 
     61 O         -82.4600   24.3479  -76.0560 O.2       2 UNK        -0.5226 
     62 CA        -81.7918   26.2075  -77.4028 C.3       2 UNK         0.0269 
     63 CB        -82.5991   25.8619  -78.6651 C.3       2 UNK        -0.1926 
     64 N         -82.5567   27.1410  -76.5792 N.am      2 UNK        -0.4687 
     65 C         -82.0153   28.0590  -75.7697 C.2       1 UNK         0.5165 
     66 O         -80.8197   28.3494  -75.8022 O.2       1 UNK        -0.5079 
     67 H67       -86.6341   26.4882  -73.4207 H         1 UNK         0.0900 
     68 H68       -85.1177   26.1433  -72.5863 H         1 UNK         0.0900 
     69 H69       -85.5837   25.1902  -73.9969 H         1 UNK         0.0900 
     70 H70       -83.4666   27.5643  -73.0998 H         1 UNK         0.2959 
     71 H71       -83.6266   29.3674  -75.3651 H         1 UNK         0.1079 
     72 H72       -81.6111   30.4178  -74.3147 H         1 UNK         0.0837 
     73 H73       -82.9900   30.3311  -73.2713 H         1 UNK         0.0837 
     74 H74       -79.5838   30.5691  -72.5834 H         1 UNK         0.0685 
     75 H75       -79.3900   29.4081  -73.8717 H         1 UNK         0.0685 
     76 H76       -79.5301   27.0044  -71.5340 H         1 UNK         0.1434 
     77 H77       -75.4656   27.1554  -70.1999 H         1 UNK         0.1329 
     78 H78       -77.1054   30.4403  -72.4059 H         1 UNK         0.1335 
     79 H79       -74.9664   30.6805  -71.2961 H         1 UNK         0.0680 
     80 H80       -74.3674   29.4376  -70.2204 H         1 UNK         0.0680 
     81 H81       -72.4548   30.7905  -71.3597 H         1 UNK         0.1032 
     82 H82       -71.3828   29.5300  -71.9056 H         1 UNK         0.1032 
     83 H83       -72.8076   31.4574  -73.8150 H         1 UNK         0.0461 
     84 H84       -72.3536   33.4654  -72.7752 H         1 UNK         0.3453 
     85 H85       -70.7212   34.0225  -72.5179 H         1 UNK         0.3453 
     86 H86       -71.0733   29.1962  -74.3018 H         1 UNK         0.2984 
     87 H87       -70.8207   29.8221  -77.7871 H         1 UNK         0.0554 
     88 H88       -68.4746   29.0900  -77.4667 H         1 UNK         0.0847 
     89 H89       -68.5764   29.4362  -75.7403 H         1 UNK         0.0847 
     90 H90       -68.6902   30.7411  -76.9089 H         1 UNK         0.0847 
     91 H91       -71.3299   27.7196  -77.4787 H         1 UNK         0.3141 
     92 H92       -70.5020   25.4091  -76.6750 H         1 UNK         0.0743 
     93 H93       -69.9091   24.8451  -74.3725 H         1 UNK         0.0784 
     94 H94       -71.5032   25.2874  -73.7879 H         1 UNK         0.0784 
     95 H95       -71.3061   23.8903  -74.8455 H         1 UNK         0.0784 
     96 H96       -73.2329   25.5432  -75.6302 H         1 UNK         0.3213 
     97 H97       -74.7017   26.5930  -78.6379 H         1 UNK         0.0855 
     98 H98       -74.5030   23.6221  -77.9024 H         1 UNK         0.0814 
     99 H99       -74.1571   24.3159  -79.4795 H         1 UNK         0.0814 
    100 H100      -75.7957   24.3596  -78.8470 H         1 UNK         0.0814 
    101 H101      -75.8566   25.1758  -76.4583 H         1 UNK         0.3105 
    102 H102      -76.0425   27.8441  -74.1371 H         1 UNK         0.0547 
    103 H103      -78.1580   26.6110  -75.9843 H         1 UNK         0.0837 
    104 H104      -78.4920   27.1495  -74.3462 H         1 UNK         0.0837 
    105 H105      -77.9708   28.3009  -75.5662 H         1 UNK         0.0837 
    106 H106      -77.0677   25.2223  -74.0144 H         1 UNK         0.3020 
    107 H107      -74.1370   23.5837  -72.7975 H         1 UNK         0.1245 
    108 H108      -75.2262   24.7673  -70.8631 H         1 UNK         0.0781 
    109 H109      -75.4965   23.0556  -70.9216 H         1 UNK         0.0781 
    110 H110      -76.9973   25.4420  -69.3224 H         1 UNK         0.0836 
    111 H111      -78.6961   25.5283  -69.6890 H         1 UNK         0.0836 
    112 H112      -76.8012   22.6965  -73.4194 H         1 UNK         0.3022 
    113 H113      -76.1096   21.7651  -76.7768 H         1 UNK         0.0747 
    114 H114      -76.8326   19.5169  -76.0113 H         1 UNK         0.0793 
    115 H115      -75.1834   19.8273  -75.4974 H         1 UNK         0.0793 
    116 H116      -76.4957   19.9476  -74.3337 H         1 UNK         0.0793 
    117 H117      -78.3974   21.3598  -75.1267 H         1 UNK         0.3047 
    118 H118      -80.3327   22.5833  -75.8571 H         1 UNK         0.0822 
    119 H119      -79.5121   23.0007  -73.4850 H         1 UNK         0.0807 
    120 H120      -80.9488   23.9364  -73.8311 H         1 UNK         0.0807 
    121 H121      -79.3737   24.7183  -73.8432 H         1 UNK         0.0807 
    122 H122      -79.4966   25.0971  -76.8972 H         1 UNK         0.2946 
    123 H123      -80.8477   26.6637  -77.7104 H         1 UNK         0.1144 
    124 H124      -82.0523   25.1610  -79.2972 H         1 UNK         0.0793 
    125 H125      -82.7978   26.7515  -79.2630 H         1 UNK         0.0793 
    126 H126      -83.5579   25.4025  -78.4207 H         1 UNK         0.0793 
    127 H127      -83.5464   26.9459  -76.4667 H         1 UNK         0.2896 
@<TRIPOS>BOND
     1    1    2 1    
     2    1   67 1    
     3    1   68 1    
     4    1   69 1    
     5    2    3 2    
     6    2    4 am   BACKBONE|DICT|INTERRES
     7    4    5 1    
     8    4   70 1    
     9    5    6 1    
    10    5   65 1    
    11    5   71 1    
    12    6    7 1    
    13    6   72 1    
    14    6   73 1    
    15    7    8 1    
    16    8    9 1    
    17    8   74 1    
    18    8   75 1    
    19    9   10 ar   
    20    9   14 ar   
    21   10   11 ar   
    22   10   76 1    
    23   11   12 ar   
    24   11   48 1    
    25   12   13 ar   
    26   12   77 1    
    27   13   14 ar   
    28   13   15 1    
    29   14   78 1    
    30   15   16 1    
    31   15   79 1    
    32   15   80 1    
    33   16   17 1    
    34   17   18 1    
    35   17   81 1    
    36   17   82 1    
    37   18   19 1    
    38   18   22 1    
    39   18   83 1    
    40   19   20 am   BACKBONE|DICT|INTERRES
    41   19   21 2    
    42   20   84 1    
    43   20   85 1    
    44   22   23 am   BACKBONE|DICT|INTERRES
    45   22   86 1    
    46   23   24 2    
    47   23   25 1    
    48   25   26 1    
    49   25   27 1    
    50   25   87 1    
    51   26   88 1    
    52   26   89 1    
    53   26   90 1    
    54   27   28 am   BACKBONE|DICT|INTERRES
    55   27   91 1    
    56   28   29 2    
    57   28   30 1    
    58   30   31 1    
    59   30   32 1    
    60   30   92 1    
    61   31   93 1    
    62   31   94 1    
    63   31   95 1    
    64   32   33 am   BACKBONE|DICT|INTERRES
    65   32   96 1    
    66   33   34 2    
    67   33   35 1    
    68   35   36 1    
    69   35   37 1    
    70   35   97 1    
    71   36   98 1    
    72   36   99 1    
    73   36  100 1    
    74   37   38 am   BACKBONE|DICT|INTERRES
    75   37  101 1    
    76   38   39 2    
    77   38   40 1    
    78   40   41 1    
    79   40   42 1    
    80   40  102 1    
    81   41  103 1    
    82   41  104 1    
    83   41  105 1    
    84   42   43 am   BACKBONE|DICT|INTERRES
    85   42  106 1    
    86   43   44 2    
    87   43   45 1    
    88   45   46 1    
    89   45   49 1    
    90   45  107 1    
    91   46   47 1    
    92   46  108 1    
    93   46  109 1    
    94   47   48 1    
    95   48  110 1    
    96   48  111 1    
    97   49   50 am   BACKBONE|DICT|INTERRES
    98   49  112 1    
    99   50   51 2    
   100   50   52 1    
   101   52   53 1    
   102   52   54 1    
   103   52  113 1    
   104   53  114 1    
   105   53  115 1    
   106   53  116 1    
   107   54   55 am   BACKBONE|DICT|INTERRES
   108   54  117 1    
   109   55   56 2    
   110   55   57 1    
   111   57   58 1    
   112   57   59 1    
   113   57  118 1    
   114   58  119 1    
   115   58  120 1    
   116   58  121 1    
   117   59   60 am   BACKBONE|DICT|INTERRES
   118   59  122 1    
   119   60   61 2    
   120   60   62 1    
   121   62   63 1    
   122   62   64 1    
   123   62  123 1    
   124   63  124 1    
   125   63  125 1    
   126   63  126 1    
   127   64   65 am   BACKBONE|DICT|INTERRES
   128   64  127 1    
   129   65   66 2    
@<TRIPOS>SUBSTRUCTURE
     1 UNK         1 GROUP             0       ****    0 ROOT    
