@<TRIPOS>MOLECULE
3R135
127   129    1
SMALL
USER_CHARGES


@<TRIPOS>ATOM
      1 CA        -79.3610   23.9741  -71.1950 C.3       0 UNK        -0.1998 
      2 C         -79.9689   24.9058  -72.2316 C.2       0 UNK         0.4909 
      3 O         -79.3556   25.1543  -73.2722 O.2       0 UNK        -0.5240 
      4 N         -81.1858   25.3956  -71.9497 N.am      1 UNK        -0.4739 
      5 CA        -81.9822   26.3229  -72.7710 C.3       1 UNK         0.0864 
      6 C6        -81.4410   27.7796  -72.7321 C.3       11 UNK        -0.0881 
      7 S7        -81.6817   28.5116  -71.0777 S.3       11 UNK        -0.2682 
      8 C8        -80.8556   30.1323  -71.2556 C.3       11 UNK         0.0289 
      9 C9        -79.3272   30.1099  -71.1787 C.ar      11 UNK        -0.0687 
     10 C10       -78.6194   29.0477  -70.6029 C.ar      11 UNK        -0.0823 
     11 C11       -77.2246   29.0667  -70.5554 C.ar      11 UNK        -0.0830 
     12 C12       -76.5315   30.1778  -71.0387 C.ar      11 UNK        -0.1021 
     13 C13       -77.2142   31.2459  -71.6320 C.ar      11 UNK        -0.0753 
     14 C14       -78.6122   31.2003  -71.6886 C.ar      11 UNK        -0.0933 
     15 C15       -76.5000   32.4589  -72.2387 C.3       11 UNK         0.0166 
     16 S16       -74.6703   32.4062  -72.2680 S.3       11 UNK        -0.2615 
     17 C17       -74.3431   31.1188  -73.5236 C.3       11 UNK        -0.0865 
     18 CA        -72.9225   30.5038  -73.3995 C.3       10 UNK         0.0862 
     19 C         -72.8064   29.5223  -72.2029 C.2       10 UNK         0.5551 
     20 N         -72.3532   29.9985  -71.0517 N.am      10 UNK        -0.7319 
     21 O         -73.1483   28.3459  -72.2945 O.2       10 UNK        -0.5018 
     22 N         -72.5582   29.8252  -74.6473 N.am      10 UNK        -0.4509 
     23 C         -71.4998   30.1019  -75.4163 C.2       10 UNK         0.4899 
     24 O         -70.6848   30.9926  -75.1683 O.2       10 UNK        -0.4839 
     25 CA        -71.3455   29.2515  -76.6935 C.3       9 UNK         0.0222 
     26 CB        -69.9986   29.4708  -77.4157 C.3       9 UNK        -0.1966 
     27 N         -71.6014   27.8240  -76.4709 N.am      9 UNK        -0.4218 
     28 C         -70.9083   26.9753  -75.6952 C.2       9 UNK         0.5020 
     29 O         -69.8976   27.2937  -75.0666 O.2       9 UNK        -0.5274 
     30 CA        -71.4166   25.5214  -75.5822 C.3       8 UNK         0.0270 
     31 CB        -71.8626   25.2236  -74.1412 C.3       8 UNK        -0.1976 
     32 N         -72.5126   25.1941  -76.5018 N.am      8 UNK        -0.4313 
     33 C         -72.3716   24.9848  -77.8185 C.2       8 UNK         0.5041 
     34 O         -71.2841   24.9722  -78.3960 O.2       8 UNK        -0.5577 
     35 CA        -73.6626   24.8033  -78.6384 C.3       7 UNK         0.0284 
     36 CB        -74.1073   23.3321  -78.6397 C.3       7 UNK        -0.1958 
     37 N         -74.7641   25.6498  -78.1688 N.am      7 UNK        -0.4454 
     38 C         -74.7568   26.9912  -78.1813 C.2       7 UNK         0.5089 
     39 O         -73.8392   27.6677  -78.6444 O.2       7 UNK        -0.5125 
     40 CA        -75.9336   27.6974  -77.4871 C.3       6 UNK         0.0408 
     41 CB        -77.1752   27.7331  -78.3915 C.3       6 UNK        -0.1791 
     42 N         -76.2467   27.0805  -76.1928 N.am      6 UNK        -0.4762 
     43 C         -75.4186   27.1211  -75.1365 C.2       6 UNK         0.5007 
     44 O         -74.3606   27.7461  -75.1444 O.2       6 UNK        -0.5032 
     45 CA        -75.7997   26.3133  -73.8790 C.3       5 UNK         0.0783 
     46 C46       -76.4786   27.2232  -72.8391 C.3       11 UNK        -0.0857 
     47 S47       -76.6440   26.4318  -71.2008 S.3       11 UNK        -0.2512 
     48 C48       -76.4556   27.8487  -70.0641 C.3       11 UNK         0.0225 
     49 N         -76.6009   25.1319  -74.2095 N.am      5 UNK        -0.4615 
     50 C         -76.1038   24.0624  -74.8442 C.2       4 UNK         0.5053 
     51 O         -74.9191   23.9486  -75.1606 O.2       4 UNK        -0.5105 
     52 CA        -77.1085   22.9793  -75.2637 C.3       4 UNK         0.0263 
     53 CB        -77.5052   22.0893  -74.0769 C.3       4 UNK        -0.1981 
     54 N         -78.3044   23.5557  -75.8852 N.am      4 UNK        -0.4224 
     55 C         -78.3035   24.1712  -77.0753 C.2       3 UNK         0.4895 
     56 O         -77.2834   24.3084  -77.7515 O.2       3 UNK        -0.5091 
     57 CA        -79.6161   24.7857  -77.6015 C.3       3 UNK         0.0250 
     58 CB        -79.9217   24.3129  -79.0376 C.3       3 UNK        -0.1996 
     59 N         -80.7945   24.6356  -76.7387 N.am      3 UNK        -0.4254 
     60 C         -81.4538   23.5212  -76.3970 C.2       2 UNK         0.5004 
     61 O         -81.0933   22.3866  -76.7128 O.2       2 UNK        -0.5226 
     62 CA        -82.7219   23.7223  -75.5408 C.3       2 UNK         0.0269 
     63 CB        -83.4085   22.3914  -75.1794 C.3       2 UNK        -0.1926 
     64 N         -82.4593   24.4650  -74.3037 N.am      2 UNK        -0.4687 
     65 C         -82.2399   25.7848  -74.1980 C.2       1 UNK         0.5165 
     66 O         -82.2312   26.5449  -75.1689 O.2       1 UNK        -0.5079 
     67 H67       -79.6379   24.2729  -70.1842 H         1 UNK         0.0900 
     68 H68       -79.7014   22.9525  -71.3603 H         1 UNK         0.0900 
     69 H69       -78.2738   23.9840  -71.2590 H         1 UNK         0.0900 
     70 H70       -81.6183   25.1336  -71.0746 H         1 UNK         0.2959 
     71 H71       -82.9761   26.3392  -72.3201 H         1 UNK         0.1079 
     72 H72       -81.9657   28.4180  -73.4452 H         1 UNK         0.0837 
     73 H73       -80.3841   27.8116  -73.0033 H         1 UNK         0.0837 
     74 H74       -81.1741   30.5832  -72.1969 H         1 UNK         0.0685 
     75 H75       -81.2216   30.7857  -70.4628 H         1 UNK         0.0685 
     76 H76       -79.1386   28.1816  -70.2185 H         1 UNK         0.1434 
     77 H77       -75.4533   30.1762  -70.9849 H         1 UNK         0.1329 
     78 H78       -79.1505   32.0240  -72.1382 H         1 UNK         0.1335 
     79 H79       -76.7983   33.3449  -71.6766 H         1 UNK         0.0680 
     80 H80       -76.8550   32.6089  -73.2594 H         1 UNK         0.0680 
     81 H81       -74.4536   31.5961  -74.4986 H         1 UNK         0.1032 
     82 H82       -75.1088   30.3421  -73.4903 H         1 UNK         0.1032 
     83 H83       -72.2197   31.3212  -73.2256 H         1 UNK         0.0461 
     84 H84       -72.2752   29.3782  -70.2616 H         1 UNK         0.3453 
     85 H85       -72.0962   30.9687  -70.9573 H         1 UNK         0.3453 
     86 H86       -73.1445   29.0237  -74.8815 H         1 UNK         0.2984 
     87 H87       -72.1321   29.5887  -77.3700 H         1 UNK         0.0554 
     88 H88       -69.8773   30.5149  -77.7065 H         1 UNK         0.0847 
     89 H89       -69.9347   28.8731  -78.3250 H         1 UNK         0.0847 
     90 H90       -69.1499   29.2110  -76.7824 H         1 UNK         0.0847 
     91 H91       -72.4296   27.4658  -76.9309 H         1 UNK         0.3141 
     92 H92       -70.5750   24.8660  -75.8159 H         1 UNK         0.0743 
     93 H93       -71.0214   25.3003  -73.4512 H         1 UNK         0.0784 
     94 H94       -72.6167   25.9333  -73.8032 H         1 UNK         0.0784 
     95 H95       -72.2716   24.2177  -74.0440 H         1 UNK         0.0784 
     96 H96       -73.4385   25.1001  -76.0968 H         1 UNK         0.3213 
     97 H97       -73.4410   25.0929  -79.6678 H         1 UNK         0.0855 
     98 H98       -74.3662   22.9862  -77.6386 H         1 UNK         0.0814 
     99 H99       -73.3137   22.6846  -79.0146 H         1 UNK         0.0814 
    100 H100      -74.9780   23.1823  -79.2785 H         1 UNK         0.0814 
    101 H101      -75.5910   25.1703  -77.8188 H         1 UNK         0.3105 
    102 H102      -75.6368   28.7311  -77.2956 H         1 UNK         0.0547 
    103 H103      -76.9774   28.3230  -79.2873 H         1 UNK         0.0837 
    104 H104      -78.0264   28.1900  -77.8869 H         1 UNK         0.0837 
    105 H105      -77.4697   26.7398  -78.7269 H         1 UNK         0.0837 
    106 H106      -77.0883   26.5283  -76.1272 H         1 UNK         0.3020 
    107 H107      -74.8635   25.9653  -73.4390 H         1 UNK         0.1245 
    108 H108      -77.4664   27.5412  -73.1787 H         1 UNK         0.0781 
    109 H109      -75.8836   28.1287  -72.7177 H         1 UNK         0.0781 
    110 H110      -75.3929   28.0757  -69.9624 H         1 UNK         0.0836 
    111 H111      -76.8081   27.5651  -69.0716 H         1 UNK         0.0836 
    112 H112      -77.5849   25.1534  -73.9474 H         1 UNK         0.3022 
    113 H113      -76.6171   22.3463  -76.0060 H         1 UNK         0.0747 
    114 H114      -76.6243   21.6460  -73.6106 H         1 UNK         0.0793 
    115 H115      -78.0327   22.6516  -73.3091 H         1 UNK         0.0793 
    116 H116      -78.1508   21.2706  -74.3953 H         1 UNK         0.0793 
    117 H117      -79.1684   23.5105  -75.3640 H         1 UNK         0.3047 
    118 H118      -79.4378   25.8603  -77.6455 H         1 UNK         0.0822 
    119 H119      -80.8134   24.7980  -79.4344 H         1 UNK         0.0807 
    120 H120      -80.0760   23.2345  -79.0850 H         1 UNK         0.0807 
    121 H121      -79.0989   24.5508  -79.7133 H         1 UNK         0.0807 
    122 H122      -81.1708   25.5030  -76.3623 H         1 UNK         0.2946 
    123 H123      -83.4214   24.3012  -76.1488 H         1 UNK         0.1144 
    124 H124      -82.7647   21.7573  -74.5685 H         1 UNK         0.0793 
    125 H125      -83.6658   21.8270  -76.0769 H         1 UNK         0.0793 
    126 H126      -84.3351   22.5586  -74.6299 H         1 UNK         0.0793 
    127 H127      -82.4072   23.9166  -73.4572 H         1 UNK         0.2896 
@<TRIPOS>BOND
     1    1    2 1    
     2    1   67 1    
     3    1   68 1    
     4    1   69 1    
     5    2    3 2    
     6    2    4 am   BACKBONE|DICT|INTERRES
     7    4    5 1    
     8    4   70 1    
     9    5    6 1    
    10    5   65 1    
    11    5   71 1    
    12    6    7 1    
    13    6   72 1    
    14    6   73 1    
    15    7    8 1    
    16    8    9 1    
    17    8   74 1    
    18    8   75 1    
    19    9   10 ar   
    20    9   14 ar   
    21   10   11 ar   
    22   10   76 1    
    23   11   12 ar   
    24   11   48 1    
    25   12   13 ar   
    26   12   77 1    
    27   13   14 ar   
    28   13   15 1    
    29   14   78 1    
    30   15   16 1    
    31   15   79 1    
    32   15   80 1    
    33   16   17 1    
    34   17   18 1    
    35   17   81 1    
    36   17   82 1    
    37   18   19 1    
    38   18   22 1    
    39   18   83 1    
    40   19   20 am   BACKBONE|DICT|INTERRES
    41   19   21 2    
    42   20   84 1    
    43   20   85 1    
    44   22   23 am   BACKBONE|DICT|INTERRES
    45   22   86 1    
    46   23   24 2    
    47   23   25 1    
    48   25   26 1    
    49   25   27 1    
    50   25   87 1    
    51   26   88 1    
    52   26   89 1    
    53   26   90 1    
    54   27   28 am   BACKBONE|DICT|INTERRES
    55   27   91 1    
    56   28   29 2    
    57   28   30 1    
    58   30   31 1    
    59   30   32 1    
    60   30   92 1    
    61   31   93 1    
    62   31   94 1    
    63   31   95 1    
    64   32   33 am   BACKBONE|DICT|INTERRES
    65   32   96 1    
    66   33   34 2    
    67   33   35 1    
    68   35   36 1    
    69   35   37 1    
    70   35   97 1    
    71   36   98 1    
    72   36   99 1    
    73   36  100 1    
    74   37   38 am   BACKBONE|DICT|INTERRES
    75   37  101 1    
    76   38   39 2    
    77   38   40 1    
    78   40   41 1    
    79   40   42 1    
    80   40  102 1    
    81   41  103 1    
    82   41  104 1    
    83   41  105 1    
    84   42   43 am   BACKBONE|DICT|INTERRES
    85   42  106 1    
    86   43   44 2    
    87   43   45 1    
    88   45   46 1    
    89   45   49 1    
    90   45  107 1    
    91   46   47 1    
    92   46  108 1    
    93   46  109 1    
    94   47   48 1    
    95   48  110 1    
    96   48  111 1    
    97   49   50 am   BACKBONE|DICT|INTERRES
    98   49  112 1    
    99   50   51 2    
   100   50   52 1    
   101   52   53 1    
   102   52   54 1    
   103   52  113 1    
   104   53  114 1    
   105   53  115 1    
   106   53  116 1    
   107   54   55 am   BACKBONE|DICT|INTERRES
   108   54  117 1    
   109   55   56 2    
   110   55   57 1    
   111   57   58 1    
   112   57   59 1    
   113   57  118 1    
   114   58  119 1    
   115   58  120 1    
   116   58  121 1    
   117   59   60 am   BACKBONE|DICT|INTERRES
   118   59  122 1    
   119   60   61 2    
   120   60   62 1    
   121   62   63 1    
   122   62   64 1    
   123   62  123 1    
   124   63  124 1    
   125   63  125 1    
   126   63  126 1    
   127   64   65 am   BACKBONE|DICT|INTERRES
   128   64  127 1    
   129   65   66 2    
@<TRIPOS>SUBSTRUCTURE
     1 UNK         1 GROUP             0       ****    0 ROOT    
