@<TRIPOS>MOLECULE
3R135
127   129    1
SMALL
USER_CHARGES


@<TRIPOS>ATOM
      1 CA        -83.8296   27.3375  -70.5741 C.3       0 UNK        -0.1998 
      2 C         -83.6837   27.4974  -72.0799 C.2       0 UNK         0.4909 
      3 O         -84.6438   27.2694  -72.8163 O.2       0 UNK        -0.5240 
      4 N         -82.4893   27.8911  -72.5407 N.am      1 UNK        -0.4739 
      5 CA        -82.1595   28.0844  -73.9587 C.3       1 UNK         0.0864 
      6 C6        -80.8361   28.8671  -74.1459 C.3       11 UNK        -0.0881 
      7 S7        -80.9255   30.5901  -73.5482 S.3       11 UNK        -0.2682 
      8 C8        -80.3442   30.4791  -71.8224 C.3       11 UNK         0.0289 
      9 C9        -78.9688   29.8384  -71.6930 C.ar      11 UNK        -0.0687 
     10 C10       -78.8284   28.5880  -71.0816 C.ar      11 UNK        -0.0823 
     11 C11       -77.5679   28.0019  -70.9346 C.ar      11 UNK        -0.0830 
     12 C12       -76.4415   28.6842  -71.4087 C.ar      11 UNK        -0.1021 
     13 C13       -76.5659   29.9317  -72.0283 C.ar      11 UNK        -0.0753 
     14 C14       -77.8335   30.5063  -72.1603 C.ar      11 UNK        -0.0933 
     15 C15       -75.3325   30.6733  -72.5274 C.3       11 UNK         0.0166 
     16 S16       -75.3384   30.8385  -74.3389 S.3       11 UNK        -0.2615 
     17 C17       -73.7369   31.6604  -74.6425 C.3       11 UNK        -0.0865 
     18 CA        -72.7415   30.7590  -75.4330 C.3       10 UNK         0.0862 
     19 C         -71.4924   31.5404  -75.9471 C.2       10 UNK         0.5551 
     20 N         -70.3331   30.9089  -76.0897 N.am      10 UNK        -0.7319 
     21 O         -71.5770   32.7278  -76.2523 O.2       10 UNK        -0.5018 
     22 N         -72.4352   29.4889  -74.7442 N.am      10 UNK        -0.4509 
     23 C         -71.7865   29.3748  -73.5767 C.2       10 UNK         0.4899 
     24 O         -71.3658   30.3370  -72.9335 O.2       10 UNK        -0.4839 
     25 CA        -71.5541   27.9662  -73.0100 C.3       9 UNK         0.0222 
     26 CB        -72.4210   27.7384  -71.7619 C.3       9 UNK        -0.1966 
     27 N         -71.8246   26.8902  -73.9678 N.am      9 UNK        -0.4218 
     28 C         -70.8728   26.2006  -74.6093 C.2       9 UNK         0.5020 
     29 O         -69.6778   26.5008  -74.5933 O.2       9 UNK        -0.5274 
     30 CA        -71.3121   24.9280  -75.3498 C.3       8 UNK         0.0270 
     31 CB        -71.6377   23.8093  -74.3457 C.3       8 UNK        -0.1976 
     32 N         -72.4475   25.1282  -76.2513 N.am      8 UNK        -0.4313 
     33 C         -72.3663   25.7621  -77.4293 C.2       8 UNK         0.5041 
     34 O         -71.3401   26.2975  -77.8509 O.2       8 UNK        -0.5577 
     35 CA        -73.6340   25.7846  -78.2998 C.3       7 UNK         0.0284 
     36 CB        -73.8347   24.4319  -79.0023 C.3       7 UNK        -0.1958 
     37 N         -74.8357   26.1324  -77.5414 N.am      7 UNK        -0.4454 
     38 C         -75.0712   27.3463  -77.0252 C.2       7 UNK         0.5089 
     39 O         -74.3307   28.3130  -77.1969 O.2       7 UNK        -0.5125 
     40 CA        -76.3217   27.5028  -76.1422 C.3       6 UNK         0.0408 
     41 CB        -77.5748   27.7436  -76.9968 C.3       6 UNK        -0.1791 
     42 N         -76.5438   26.3637  -75.2520 N.am      6 UNK        -0.4762 
     43 C         -75.6810   25.9438  -74.3147 C.2       6 UNK         0.5007 
     44 O         -74.5943   26.4756  -74.0872 O.2       6 UNK        -0.5032 
     45 CA        -76.0670   24.6612  -73.5580 C.3       5 UNK         0.0783 
     46 C46       -77.0715   24.9390  -72.4120 C.3       11 UNK        -0.0857 
     47 S47       -76.2184   25.5196  -70.9094 S.3       11 UNK        -0.2512 
     48 C48       -77.4403   26.6707  -70.1953 C.3       11 UNK         0.0225 
     49 N         -76.5476   23.6305  -74.4816 N.am      5 UNK        -0.4615 
     50 C         -75.7757   23.0105  -75.3854 C.2       4 UNK         0.5053 
     51 O         -74.5724   23.2275  -75.5229 O.2       4 UNK        -0.5105 
     52 CA        -76.4720   22.0089  -76.3200 C.3       4 UNK         0.0263 
     53 CB        -76.6655   20.6548  -75.6194 C.3       4 UNK        -0.1981 
     54 N         -77.7608   22.5012  -76.8107 N.am      4 UNK        -0.4224 
     55 C         -77.9035   23.5671  -77.6110 C.2       3 UNK         0.4895 
     56 O         -76.9629   24.2265  -78.0511 O.2       3 UNK        -0.5091 
     57 CA        -79.3404   23.9963  -77.9453 C.3       3 UNK         0.0250 
     58 CB        -79.8772   23.1966  -79.1432 C.3       3 UNK        -0.1996 
     59 N         -80.2783   23.8913  -76.8213 N.am      3 UNK        -0.4254 
     60 C         -80.1409   24.5197  -75.6455 C.2       2 UNK         0.5004 
     61 O         -79.1454   25.1713  -75.3196 O.2       2 UNK        -0.5226 
     62 CA        -81.3052   24.3897  -74.6508 C.3       2 UNK         0.0269 
     63 CB        -80.9524   23.3869  -73.5405 C.3       2 UNK        -0.1926 
     64 N         -81.6163   25.6869  -74.0476 N.am      2 UNK        -0.4687 
     65 C         -82.0814   26.7485  -74.7244 C.2       1 UNK         0.5165 
     66 O         -82.4300   26.7072  -75.9056 O.2       1 UNK        -0.5079 
     67 H67       -84.0972   26.3097  -70.3305 H         1 UNK         0.0900 
     68 H68       -84.6177   27.9919  -70.2025 H         1 UNK         0.0900 
     69 H69       -82.9088   27.5828  -70.0452 H         1 UNK         0.0900 
     70 H70       -81.7437   28.0779  -71.8889 H         1 UNK         0.2959 
     71 H71       -82.9663   28.6629  -74.4150 H         1 UNK         0.1079 
     72 H72       -79.9992   28.3422  -73.6831 H         1 UNK         0.0837 
     73 H73       -80.5854   28.9278  -75.2071 H         1 UNK         0.0837 
     74 H74       -80.3034   31.4870  -71.4070 H         1 UNK         0.0685 
     75 H75       -81.0830   29.9430  -71.2263 H         1 UNK         0.0685 
     76 H76       -79.7006   28.0775  -70.6980 H         1 UNK         0.1434 
     77 H77       -75.4641   28.2472  -71.2779 H         1 UNK         0.1329 
     78 H78       -77.9371   31.4740  -72.6322 H         1 UNK         0.1335 
     79 H79       -75.2995   31.6648  -72.0738 H         1 UNK         0.0680 
     80 H80       -74.4221   30.1579  -72.2189 H         1 UNK         0.0680 
     81 H81       -73.2966   31.9945  -73.7020 H         1 UNK         0.1032 
     82 H82       -73.9547   32.5699  -75.2050 H         1 UNK         0.1032 
     83 H83       -73.2506   30.4710  -76.3513 H         1 UNK         0.0461 
     84 H84       -69.5318   31.4150  -76.4321 H         1 UNK         0.3453 
     85 H85       -70.2543   29.9322  -75.8552 H         1 UNK         0.3453 
     86 H86       -72.7558   28.6527  -75.2121 H         1 UNK         0.2984 
     87 H87       -70.5109   27.9273  -72.6899 H         1 UNK         0.0554 
     88 H88       -72.1772   26.7929  -71.2775 H         1 UNK         0.0847 
     89 H89       -73.4783   27.7169  -72.0169 H         1 UNK         0.0847 
     90 H90       -72.2746   28.5286  -71.0243 H         1 UNK         0.0847 
     91 H91       -72.8007   26.6071  -74.0612 H         1 UNK         0.3141 
     92 H92       -70.4647   24.5915  -75.9513 H         1 UNK         0.0743 
     93 H93       -72.5084   24.0532  -73.7355 H         1 UNK         0.0784 
     94 H94       -71.8419   22.8676  -74.8557 H         1 UNK         0.0784 
     95 H95       -70.8011   23.6351  -73.6677 H         1 UNK         0.0784 
     96 H96       -73.3190   24.6708  -75.9960 H         1 UNK         0.3213 
     97 H97       -73.4921   26.5455  -79.0705 H         1 UNK         0.0855 
     98 H98       -74.0289   23.6296  -78.2895 H         1 UNK         0.0814 
     99 H99       -72.9495   24.1537  -79.5759 H         1 UNK         0.0814 
    100 H100      -74.6731   24.4687  -79.6981 H         1 UNK         0.0814 
    101 H101      -75.5356   25.4044  -77.4246 H         1 UNK         0.3105 
    102 H102      -76.1735   28.3764  -75.5082 H         1 UNK         0.0547 
    103 H103      -77.4527   28.6266  -77.6253 H         1 UNK         0.0837 
    104 H104      -77.7820   26.8995  -77.6544 H         1 UNK         0.0837 
    105 H105      -78.4541   27.9065  -76.3735 H         1 UNK         0.0837 
    106 H106      -77.4283   25.8681  -75.3536 H         1 UNK         0.3020 
    107 H107      -75.1477   24.2670  -73.1174 H         1 UNK         0.1245 
    108 H108      -77.5960   24.0223  -72.1387 H         1 UNK         0.0781 
    109 H109      -77.8450   25.6478  -72.7163 H         1 UNK         0.0781 
    110 H110      -77.1498   26.8825  -69.1656 H         1 UNK         0.0836 
    111 H111      -78.4045   26.1625  -70.1417 H         1 UNK         0.0836 
    112 H112      -77.5413   23.4548  -74.4864 H         1 UNK         0.3022 
    113 H113      -75.8208   21.8559  -77.1836 H         1 UNK         0.0747 
    114 H114      -77.0805   19.9118  -76.3008 H         1 UNK         0.0793 
    115 H115      -75.7129   20.2641  -75.2586 H         1 UNK         0.0793 
    116 H116      -77.3325   20.7324  -74.7598 H         1 UNK         0.0793 
    117 H117      -78.5907   22.0185  -76.4990 H         1 UNK         0.3047 
    118 H118      -79.3027   25.0488  -78.2331 H         1 UNK         0.0822 
    119 H119      -80.8491   23.5697  -79.4666 H         1 UNK         0.0807 
    120 H120      -79.9845   22.1368  -78.9087 H         1 UNK         0.0807 
    121 H121      -79.2031   23.2746  -79.9977 H         1 UNK         0.0807 
    122 H122      -81.1252   23.3691  -76.9954 H         1 UNK         0.2946 
    123 H123      -82.1945   24.0377  -75.1786 H         1 UNK         0.1144 
    124 H124      -80.7308   22.4033  -73.9569 H         1 UNK         0.0793 
    125 H125      -81.7799   23.2619  -72.8419 H         1 UNK         0.0793 
    126 H126      -80.0782   23.7050  -72.9709 H         1 UNK         0.0793 
    127 H127      -81.3475   25.8167  -73.0841 H         1 UNK         0.2896 
@<TRIPOS>BOND
     1    1    2 1    
     2    1   67 1    
     3    1   68 1    
     4    1   69 1    
     5    2    3 2    
     6    2    4 am   BACKBONE|DICT|INTERRES
     7    4    5 1    
     8    4   70 1    
     9    5    6 1    
    10    5   65 1    
    11    5   71 1    
    12    6    7 1    
    13    6   72 1    
    14    6   73 1    
    15    7    8 1    
    16    8    9 1    
    17    8   74 1    
    18    8   75 1    
    19    9   10 ar   
    20    9   14 ar   
    21   10   11 ar   
    22   10   76 1    
    23   11   12 ar   
    24   11   48 1    
    25   12   13 ar   
    26   12   77 1    
    27   13   14 ar   
    28   13   15 1    
    29   14   78 1    
    30   15   16 1    
    31   15   79 1    
    32   15   80 1    
    33   16   17 1    
    34   17   18 1    
    35   17   81 1    
    36   17   82 1    
    37   18   19 1    
    38   18   22 1    
    39   18   83 1    
    40   19   20 am   BACKBONE|DICT|INTERRES
    41   19   21 2    
    42   20   84 1    
    43   20   85 1    
    44   22   23 am   BACKBONE|DICT|INTERRES
    45   22   86 1    
    46   23   24 2    
    47   23   25 1    
    48   25   26 1    
    49   25   27 1    
    50   25   87 1    
    51   26   88 1    
    52   26   89 1    
    53   26   90 1    
    54   27   28 am   BACKBONE|DICT|INTERRES
    55   27   91 1    
    56   28   29 2    
    57   28   30 1    
    58   30   31 1    
    59   30   32 1    
    60   30   92 1    
    61   31   93 1    
    62   31   94 1    
    63   31   95 1    
    64   32   33 am   BACKBONE|DICT|INTERRES
    65   32   96 1    
    66   33   34 2    
    67   33   35 1    
    68   35   36 1    
    69   35   37 1    
    70   35   97 1    
    71   36   98 1    
    72   36   99 1    
    73   36  100 1    
    74   37   38 am   BACKBONE|DICT|INTERRES
    75   37  101 1    
    76   38   39 2    
    77   38   40 1    
    78   40   41 1    
    79   40   42 1    
    80   40  102 1    
    81   41  103 1    
    82   41  104 1    
    83   41  105 1    
    84   42   43 am   BACKBONE|DICT|INTERRES
    85   42  106 1    
    86   43   44 2    
    87   43   45 1    
    88   45   46 1    
    89   45   49 1    
    90   45  107 1    
    91   46   47 1    
    92   46  108 1    
    93   46  109 1    
    94   47   48 1    
    95   48  110 1    
    96   48  111 1    
    97   49   50 am   BACKBONE|DICT|INTERRES
    98   49  112 1    
    99   50   51 2    
   100   50   52 1    
   101   52   53 1    
   102   52   54 1    
   103   52  113 1    
   104   53  114 1    
   105   53  115 1    
   106   53  116 1    
   107   54   55 am   BACKBONE|DICT|INTERRES
   108   54  117 1    
   109   55   56 2    
   110   55   57 1    
   111   57   58 1    
   112   57   59 1    
   113   57  118 1    
   114   58  119 1    
   115   58  120 1    
   116   58  121 1    
   117   59   60 am   BACKBONE|DICT|INTERRES
   118   59  122 1    
   119   60   61 2    
   120   60   62 1    
   121   62   63 1    
   122   62   64 1    
   123   62  123 1    
   124   63  124 1    
   125   63  125 1    
   126   63  126 1    
   127   64   65 am   BACKBONE|DICT|INTERRES
   128   64  127 1    
   129   65   66 2    
@<TRIPOS>SUBSTRUCTURE
     1 UNK         1 GROUP             0       ****    0 ROOT    
