@<TRIPOS>MOLECULE
3R135
127   129    1
SMALL
USER_CHARGES


@<TRIPOS>ATOM
      1 CA        -78.4303   21.8137  -70.1293 C.3       0 UNK        -0.1998 
      2 C         -79.5753   22.8148  -70.0870 C.2       0 UNK         0.4909 
      3 O         -80.3496   22.8229  -69.1292 O.2       0 UNK        -0.5240 
      4 N         -79.6888   23.6536  -71.1203 N.am      1 UNK        -0.4739 
      5 CA        -80.7135   24.6856  -71.2681 C.3       1 UNK         0.0864 
      6 C6        -80.4165   26.0223  -70.5091 C.3       11 UNK        -0.0881 
      7 S7        -78.6882   26.4022  -70.0167 S.3       11 UNK        -0.2682 
      8 C8        -77.7391   26.4455  -71.5707 C.3       11 UNK         0.0289 
      9 C9        -77.8215   27.7819  -72.2960 C.ar      11 UNK        -0.0687 
     10 C10       -78.9478   28.1124  -73.0536 C.ar      11 UNK        -0.0823 
     11 C11       -78.9866   29.2920  -73.8031 C.ar      11 UNK        -0.0830 
     12 C12       -77.8900   30.1582  -73.7767 C.ar      11 UNK        -0.1021 
     13 C13       -76.7579   29.8406  -73.0207 C.ar      11 UNK        -0.0753 
     14 C14       -76.7330   28.6589  -72.2746 C.ar      11 UNK        -0.0933 
     15 C15       -75.5389   30.7454  -73.0528 C.3       11 UNK         0.0166 
     16 S16       -74.4039   30.2020  -74.3604 S.3       11 UNK        -0.2615 
     17 C17       -73.1376   31.5102  -74.2893 C.3       11 UNK        -0.0865 
     18 CA        -71.9425   31.2194  -75.2435 C.3       10 UNK         0.0862 
     19 C         -70.9806   32.4373  -75.4044 C.2       10 UNK         0.5551 
     20 N         -69.6980   32.2297  -75.6772 N.am      10 UNK        -0.7319 
     21 O         -71.4036   33.5876  -75.3155 O.2       10 UNK        -0.5018 
     22 N         -71.2793   29.9333  -74.9528 N.am      10 UNK        -0.4509 
     23 C         -70.5784   29.6465  -73.8466 C.2       10 UNK         0.4899 
     24 O         -70.3825   30.4465  -72.9294 O.2       10 UNK        -0.4839 
     25 CA        -69.9927   28.2235  -73.7639 C.3       9 UNK         0.0222 
     26 CB        -69.1943   27.9750  -72.4662 C.3       9 UNK        -0.1966 
     27 N         -71.0025   27.1764  -73.9518 N.am      9 UNK        -0.4218 
     28 C         -72.1197   26.9617  -73.2415 C.2       9 UNK         0.5020 
     29 O         -72.4705   27.6554  -72.2852 O.2       9 UNK        -0.5274 
     30 CA        -72.9740   25.7440  -73.6626 C.3       8 UNK         0.0270 
     31 CB        -74.2906   25.6453  -72.8710 C.3       8 UNK        -0.1976 
     32 N         -73.2845   25.7201  -75.0963 N.am      8 UNK        -0.4313 
     33 C         -72.4250   25.4238  -76.0808 C.2       8 UNK         0.5041 
     34 O         -71.2496   25.1100  -75.8844 O.2       8 UNK        -0.5577 
     35 CA        -72.9374   25.5481  -77.5243 C.3       7 UNK         0.0284 
     36 CB        -73.7109   24.2860  -77.9386 C.3       7 UNK        -0.1958 
     37 N         -73.7743   26.7303  -77.7379 N.am      7 UNK        -0.4454 
     38 C         -73.3863   28.0050  -77.5958 C.2       7 UNK         0.5089 
     39 O         -72.2455   28.3428  -77.2746 O.2       7 UNK        -0.5125 
     40 CA        -74.4532   29.0929  -77.8274 C.3       6 UNK         0.0408 
     41 CB        -74.5856   29.4466  -79.3213 C.3       6 UNK        -0.1791 
     42 N         -75.7502   28.7894  -77.2023 N.am      6 UNK        -0.4762 
     43 C         -76.6414   27.8494  -77.5473 C.2       6 UNK         0.5007 
     44 O         -76.5371   27.1397  -78.5510 O.2       6 UNK        -0.5032 
     45 CA        -77.8210   27.6295  -76.5785 C.3       5 UNK         0.0783 
     46 C46       -79.0421   28.4725  -77.0237 C.3       11 UNK        -0.0857 
     47 S47       -80.4856   28.3054  -75.9247 S.3       11 UNK        -0.2512 
     48 C48       -80.1945   29.6026  -74.6761 C.3       11 UNK         0.0225 
     49 N         -78.1177   26.1972  -76.4201 N.am      5 UNK        -0.4615 
     50 C         -77.2361   25.3093  -75.9357 C.2       4 UNK         0.5053 
     51 O         -76.1173   25.6323  -75.5313 O.2       4 UNK        -0.5105 
     52 CA        -77.6296   23.8226  -75.9148 C.3       4 UNK         0.0263 
     53 CB        -77.0100   23.0864  -74.7113 C.3       4 UNK        -0.1981 
     54 N         -79.0794   23.6174  -75.8946 N.am      4 UNK        -0.4224 
     55 C         -79.7625   22.8540  -76.7603 C.2       3 UNK         0.4895 
     56 O         -79.2567   22.3383  -77.7581 O.2       3 UNK        -0.5091 
     57 CA        -81.2509   22.5723  -76.4659 C.3       3 UNK         0.0250 
     58 CB        -81.4356   21.1180  -76.0004 C.3       3 UNK        -0.1996 
     59 N         -81.8396   23.4624  -75.4634 N.am      3 UNK        -0.4254 
     60 C         -82.1824   24.7365  -75.6883 C.2       2 UNK         0.5004 
     61 O         -82.1111   25.2705  -76.7951 O.2       2 UNK        -0.5226 
     62 CA        -82.6800   25.5619  -74.4836 C.3       2 UNK         0.0269 
     63 CB        -84.2163   25.6213  -74.4845 C.3       2 UNK        -0.1926 
     64 N         -82.2216   25.1401  -73.1490 N.am      2 UNK        -0.4687 
     65 C         -80.9568   24.9041  -72.7688 C.2       1 UNK         0.5165 
     66 O         -80.0026   24.8646  -73.5468 O.2       1 UNK        -0.5079 
     67 H67       -78.8191   20.7964  -70.0967 H         1 UNK         0.0900 
     68 H68       -77.8298   21.9191  -71.0329 H         1 UNK         0.0900 
     69 H69       -77.7761   21.9572  -69.2698 H         1 UNK         0.0900 
     70 H70       -79.0570   23.5917  -71.9076 H         1 UNK         0.2959 
     71 H71       -81.6447   24.2753  -70.8695 H         1 UNK         0.1079 
     72 H72       -80.9748   25.9948  -69.5722 H         1 UNK         0.0837 
     73 H73       -80.8248   26.8879  -71.0339 H         1 UNK         0.0837 
     74 H74       -76.7004   26.2332  -71.3162 H         1 UNK         0.0685 
     75 H75       -78.0359   25.6384  -72.2352 H         1 UNK         0.0685 
     76 H76       -79.7837   27.4329  -73.1001 H         1 UNK         0.1434 
     77 H77       -77.9025   31.0649  -74.3664 H         1 UNK         0.1329 
     78 H78       -75.8458   28.4052  -71.7101 H         1 UNK         0.1335 
     79 H79       -75.0246   30.7252  -72.0906 H         1 UNK         0.0680 
     80 H80       -75.8378   31.7797  -73.2299 H         1 UNK         0.0680 
     81 H81       -72.7913   31.6231  -73.2608 H         1 UNK         0.1032 
     82 H82       -73.6232   32.4511  -74.5541 H         1 UNK         0.1032 
     83 H83       -72.3599   31.0965  -76.2423 H         1 UNK         0.0461 
     84 H84       -69.3422   31.2915  -75.7657 H         1 UNK         0.3453 
     85 H85       -69.0815   33.0188  -75.7911 H         1 UNK         0.3453 
     86 H86       -71.4092   29.2167  -75.6604 H         1 UNK         0.2984 
     87 H87       -69.2974   28.1294  -74.5992 H         1 UNK         0.0554 
     88 H88       -68.3797   28.6932  -72.3648 H         1 UNK         0.0847 
     89 H89       -68.7502   26.9797  -72.4574 H         1 UNK         0.0847 
     90 H90       -69.8227   28.0696  -71.5798 H         1 UNK         0.0847 
     91 H91       -70.8382   26.5300  -74.7218 H         1 UNK         0.3141 
     92 H92       -72.3848   24.8548  -73.4290 H         1 UNK         0.0743 
     93 H93       -74.9419   26.4928  -73.0859 H         1 UNK         0.0784 
     94 H94       -74.8362   24.7351  -73.1185 H         1 UNK         0.0784 
     95 H95       -74.1091   25.6299  -71.7956 H         1 UNK         0.0784 
     96 H96       -74.2513   25.9223  -75.3451 H         1 UNK         0.3213 
     97 H97       -72.0656   25.6438  -78.1750 H         1 UNK         0.0855 
     98 H98       -74.6081   24.1438  -77.3356 H         1 UNK         0.0814 
     99 H99       -73.0937   23.3945  -77.8185 H         1 UNK         0.0814 
    100 H100      -74.0137   24.3310  -78.9848 H         1 UNK         0.0814 
    101 H101      -74.7398   26.5732  -78.0110 H         1 UNK         0.3105 
    102 H102      -74.0981   29.9919  -77.3247 H         1 UNK         0.0547 
    103 H103      -73.6350   29.8070  -79.7163 H         1 UNK         0.0837 
    104 H104      -74.8769   28.5881  -79.9266 H         1 UNK         0.0837 
    105 H105      -75.3214   30.2349  -79.4791 H         1 UNK         0.0837 
    106 H106      -75.9059   29.2859  -76.3339 H         1 UNK         0.3020 
    107 H107      -77.4969   27.9770  -75.5970 H         1 UNK         0.1245 
    108 H108      -78.7778   29.5298  -77.0889 H         1 UNK         0.0781 
    109 H109      -79.3576   28.1779  -78.0266 H         1 UNK         0.0781 
    110 H110      -81.0772   29.6835  -74.0403 H         1 UNK         0.0836 
    111 H111      -80.0859   30.5668  -75.1751 H         1 UNK         0.0836 
    112 H112      -79.0198   25.8790  -76.7416 H         1 UNK         0.3022 
    113 H113      -77.2010   23.3945  -76.8228 H         1 UNK         0.0747 
    114 H114      -77.2904   22.0331  -74.7027 H         1 UNK         0.0793 
    115 H115      -75.9204   23.1274  -74.7427 H         1 UNK         0.0793 
    116 H116      -77.3285   23.5277  -73.7664 H         1 UNK         0.0793 
    117 H117      -79.5664   24.0406  -75.1053 H         1 UNK         0.3047 
    118 H118      -81.7954   22.7004  -77.4041 H         1 UNK         0.0822 
    119 H119      -82.4890   20.8777  -75.8550 H         1 UNK         0.0807 
    120 H120      -80.9130   20.9248  -75.0626 H         1 UNK         0.0807 
    121 H121      -81.0456   20.4174  -76.7403 H         1 UNK         0.0807 
    122 H122      -81.9276   23.1028  -74.5242 H         1 UNK         0.2946 
    123 H123      -82.3098   26.5764  -74.6303 H         1 UNK         0.1144 
    124 H124      -84.5950   25.9618  -75.4497 H         1 UNK         0.0793 
    125 H125      -84.5891   26.3168  -73.7324 H         1 UNK         0.0793 
    126 H126      -84.6572   24.6432  -74.2883 H         1 UNK         0.0793 
    127 H127      -82.9373   25.1270  -72.4360 H         1 UNK         0.2896 
@<TRIPOS>BOND
     1    1    2 1    
     2    1   67 1    
     3    1   68 1    
     4    1   69 1    
     5    2    3 2    
     6    2    4 am   BACKBONE|DICT|INTERRES
     7    4    5 1    
     8    4   70 1    
     9    5    6 1    
    10    5   65 1    
    11    5   71 1    
    12    6    7 1    
    13    6   72 1    
    14    6   73 1    
    15    7    8 1    
    16    8    9 1    
    17    8   74 1    
    18    8   75 1    
    19    9   10 ar   
    20    9   14 ar   
    21   10   11 ar   
    22   10   76 1    
    23   11   12 ar   
    24   11   48 1    
    25   12   13 ar   
    26   12   77 1    
    27   13   14 ar   
    28   13   15 1    
    29   14   78 1    
    30   15   16 1    
    31   15   79 1    
    32   15   80 1    
    33   16   17 1    
    34   17   18 1    
    35   17   81 1    
    36   17   82 1    
    37   18   19 1    
    38   18   22 1    
    39   18   83 1    
    40   19   20 am   BACKBONE|DICT|INTERRES
    41   19   21 2    
    42   20   84 1    
    43   20   85 1    
    44   22   23 am   BACKBONE|DICT|INTERRES
    45   22   86 1    
    46   23   24 2    
    47   23   25 1    
    48   25   26 1    
    49   25   27 1    
    50   25   87 1    
    51   26   88 1    
    52   26   89 1    
    53   26   90 1    
    54   27   28 am   BACKBONE|DICT|INTERRES
    55   27   91 1    
    56   28   29 2    
    57   28   30 1    
    58   30   31 1    
    59   30   32 1    
    60   30   92 1    
    61   31   93 1    
    62   31   94 1    
    63   31   95 1    
    64   32   33 am   BACKBONE|DICT|INTERRES
    65   32   96 1    
    66   33   34 2    
    67   33   35 1    
    68   35   36 1    
    69   35   37 1    
    70   35   97 1    
    71   36   98 1    
    72   36   99 1    
    73   36  100 1    
    74   37   38 am   BACKBONE|DICT|INTERRES
    75   37  101 1    
    76   38   39 2    
    77   38   40 1    
    78   40   41 1    
    79   40   42 1    
    80   40  102 1    
    81   41  103 1    
    82   41  104 1    
    83   41  105 1    
    84   42   43 am   BACKBONE|DICT|INTERRES
    85   42  106 1    
    86   43   44 2    
    87   43   45 1    
    88   45   46 1    
    89   45   49 1    
    90   45  107 1    
    91   46   47 1    
    92   46  108 1    
    93   46  109 1    
    94   47   48 1    
    95   48  110 1    
    96   48  111 1    
    97   49   50 am   BACKBONE|DICT|INTERRES
    98   49  112 1    
    99   50   51 2    
   100   50   52 1    
   101   52   53 1    
   102   52   54 1    
   103   52  113 1    
   104   53  114 1    
   105   53  115 1    
   106   53  116 1    
   107   54   55 am   BACKBONE|DICT|INTERRES
   108   54  117 1    
   109   55   56 2    
   110   55   57 1    
   111   57   58 1    
   112   57   59 1    
   113   57  118 1    
   114   58  119 1    
   115   58  120 1    
   116   58  121 1    
   117   59   60 am   BACKBONE|DICT|INTERRES
   118   59  122 1    
   119   60   61 2    
   120   60   62 1    
   121   62   63 1    
   122   62   64 1    
   123   62  123 1    
   124   63  124 1    
   125   63  125 1    
   126   63  126 1    
   127   64   65 am   BACKBONE|DICT|INTERRES
   128   64  127 1    
   129   65   66 2    
@<TRIPOS>SUBSTRUCTURE
     1 UNK         1 GROUP             0       ****    0 ROOT    
