@<TRIPOS>MOLECULE
3R135
127   129    1
SMALL
USER_CHARGES


@<TRIPOS>ATOM
      1 CA        -84.7442   29.8098  -74.4820 C.3       0 UNK        -0.1998 
      2 C         -83.5901   29.3612  -73.5980 C.2       0 UNK         0.4909 
      3 O         -82.8458   30.2003  -73.0920 O.2       0 UNK        -0.5240 
      4 N         -83.4396   28.0473  -73.4086 N.am      1 UNK        -0.4739 
      5 CA        -82.3751   27.4031  -72.6418 C.3       1 UNK         0.0864 
      6 C6        -82.6116   27.5125  -71.1088 C.3       11 UNK        -0.0881 
      7 S7        -81.1259   27.2008  -70.0856 S.3       11 UNK        -0.2682 
      8 C8        -80.5726   28.8768  -69.6106 C.3       11 UNK         0.0289 
      9 C9        -79.3655   29.3096  -70.4299 C.ar      11 UNK        -0.0687 
     10 C10       -79.5333   29.6979  -71.7589 C.ar      11 UNK        -0.0823 
     11 C11       -78.4287   29.9870  -72.5620 C.ar      11 UNK        -0.0830 
     12 C12       -77.1499   29.9855  -72.0013 C.ar      11 UNK        -0.1021 
     13 C13       -76.9696   29.6447  -70.6576 C.ar      11 UNK        -0.0753 
     14 C14       -78.0789   29.2932  -69.8792 C.ar      11 UNK        -0.0933 
     15 C15       -75.5761   29.6578  -70.0486 C.3       11 UNK         0.0166 
     16 S16       -74.7870   28.0169  -70.0806 S.3       11 UNK        -0.2615 
     17 C17       -74.3668   27.7981  -71.8467 C.3       11 UNK        -0.0865 
     18 CA        -73.1093   28.5846  -72.3021 C.3       10 UNK         0.0862 
     19 C         -71.8149   28.0873  -71.5994 C.2       10 UNK         0.5551 
     20 N         -71.2025   28.9082  -70.7569 N.am      10 UNK        -0.7319 
     21 O         -71.3858   26.9521  -71.7918 O.2       10 UNK        -0.5018 
     22 N         -72.9693   28.5255  -73.7624 N.am      10 UNK        -0.4509 
     23 C         -72.1534   29.3067  -74.4849 C.2       10 UNK         0.4899 
     24 O         -71.5393   30.2699  -74.0233 O.2       10 UNK        -0.4839 
     25 CA        -72.0007   28.9307  -75.9725 C.3       9 UNK         0.0222 
     26 CB        -70.8596   29.6860  -76.6872 C.3       9 UNK        -0.1966 
     27 N         -71.8867   27.4780  -76.1508 N.am      9 UNK        -0.4218 
     28 C         -70.9136   26.6759  -75.6899 C.2       9 UNK         0.5020 
     29 O         -69.8607   27.0823  -75.1970 O.2       9 UNK        -0.5274 
     30 CA        -71.1540   25.1588  -75.7605 C.3       8 UNK         0.0270 
     31 CB        -71.5088   24.6130  -74.3663 C.3       8 UNK        -0.1976 
     32 N         -72.2228   24.7890  -76.6959 N.am      8 UNK        -0.4313 
     33 C         -72.0497   24.0018  -77.7660 C.2       8 UNK         0.5041 
     34 O         -70.9632   23.5299  -78.1048 O.2       8 UNK        -0.5577 
     35 CA        -73.2947   23.6608  -78.6011 C.3       7 UNK         0.0284 
     36 CB        -73.9836   22.3975  -78.0585 C.3       7 UNK        -0.1958 
     37 N         -74.2704   24.7493  -78.6957 N.am      7 UNK        -0.4454 
     38 C         -74.0838   25.8633  -79.4193 C.2       7 UNK         0.5089 
     39 O         -73.0304   26.1394  -79.9931 O.2       7 UNK        -0.5125 
     40 CA        -75.2739   26.8246  -79.5400 C.3       6 UNK         0.0408 
     41 CB        -76.2771   26.3039  -80.5822 C.3       6 UNK        -0.1791 
     42 N         -75.9547   26.9886  -78.2574 N.am      6 UNK        -0.4762 
     43 C         -75.8609   28.0720  -77.4734 C.2       6 UNK         0.5007 
     44 O         -75.2154   29.0788  -77.7639 O.2       6 UNK        -0.5032 
     45 CA        -76.6183   28.0239  -76.1297 C.3       5 UNK         0.0783 
     46 C46       -78.0318   28.6281  -76.3345 C.3       11 UNK        -0.0857 
     47 S47       -79.0521   28.6264  -74.8308 S.3       11 UNK        -0.2512 
     48 C48       -78.6219   30.2130  -74.0500 C.3       11 UNK         0.0225 
     49 N         -76.6418   26.6717  -75.5483 N.am      5 UNK        -0.4615 
     50 C         -75.5483   25.9633  -75.2228 C.2       4 UNK         0.5053 
     51 O         -74.4051   26.4147  -75.2883 O.2       4 UNK        -0.5105 
     52 CA        -75.7191   24.4905  -74.8086 C.3       4 UNK         0.0263 
     53 CB        -75.6257   24.3490  -73.2824 C.3       4 UNK        -0.1981 
     54 N         -76.9553   23.8582  -75.2688 N.am      4 UNK        -0.4224 
     55 C         -77.4074   23.7758  -76.5292 C.2       3 UNK         0.4895 
     56 O         -76.7897   24.2014  -77.5074 O.2       3 UNK        -0.5091 
     57 CA        -78.8065   23.1539  -76.7210 C.3       3 UNK         0.0250 
     58 CB        -78.6802   21.7194  -77.2574 C.3       3 UNK        -0.1996 
     59 N         -79.6315   23.1492  -75.5005 N.am      3 UNK        -0.4254 
     60 C         -80.0126   24.2525  -74.8385 C.2       2 UNK         0.5004 
     61 O         -79.7583   25.3914  -75.2354 O.2       2 UNK        -0.5226 
     62 CA        -80.7120   24.0425  -73.4821 C.3       2 UNK         0.0269 
     63 CB        -79.7750   23.3381  -72.4830 C.3       2 UNK        -0.1926 
     64 N         -81.1050   25.3290  -72.9049 N.am      2 UNK        -0.4687 
     65 C         -82.2596   25.9544  -73.1503 C.2       1 UNK         0.5165 
     66 O         -83.2010   25.4399  -73.7639 O.2       1 UNK        -0.5079 
     67 H67       -85.3239   28.9656  -74.8551 H         1 UNK         0.0900 
     68 H68       -85.4148   30.4605  -73.9214 H         1 UNK         0.0900 
     69 H69       -84.3655   30.3666  -75.3386 H         1 UNK         0.0900 
     70 H70       -84.0479   27.3838  -73.8750 H         1 UNK         0.2959 
     71 H71       -81.4395   27.8940  -72.9086 H         1 UNK         0.1079 
     72 H72       -83.3961   26.8207  -70.7962 H         1 UNK         0.0837 
     73 H73       -82.9944   28.5024  -70.8589 H         1 UNK         0.0837 
     74 H74       -81.3781   29.6034  -69.7227 H         1 UNK         0.0685 
     75 H75       -80.3210   28.8686  -68.5490 H         1 UNK         0.0685 
     76 H76       -80.5227   29.7220  -72.1880 H         1 UNK         0.1434 
     77 H77       -76.2923   30.2248  -72.6151 H         1 UNK         0.1329 
     78 H78       -77.9375   28.9999  -68.8479 H         1 UNK         0.1335 
     79 H79       -75.6385   29.9907  -69.0115 H         1 UNK         0.0680 
     80 H80       -74.9425   30.3854  -70.5572 H         1 UNK         0.0680 
     81 H81       -74.2175   26.7327  -72.0208 H         1 UNK         0.1032 
     82 H82       -75.2304   28.0701  -72.4530 H         1 UNK         0.1032 
     83 H83       -73.2633   29.6340  -72.0450 H         1 UNK         0.0461 
     84 H84       -71.5511   29.8396  -70.5933 H         1 UNK         0.3453 
     85 H85       -70.3694   28.5941  -70.2848 H         1 UNK         0.3453 
     86 H86       -73.4132   27.7397  -74.2265 H         1 UNK         0.2984 
     87 H87       -72.9333   29.2236  -76.4536 H         1 UNK         0.0554 
     88 H88       -71.0360   30.7621  -76.6687 H         1 UNK         0.0847 
     89 H89       -70.7817   29.3890  -77.7329 H         1 UNK         0.0847 
     90 H90       -69.8931   29.5105  -76.2144 H         1 UNK         0.0847 
     91 H91       -72.7324   27.0309  -76.4763 H         1 UNK         0.3141 
     92 H92       -70.2062   24.7093  -76.0637 H         1 UNK         0.0743 
     93 H93       -72.4195   25.0657  -73.9736 H         1 UNK         0.0784 
     94 H94       -71.6502   23.5323  -74.3855 H         1 UNK         0.0784 
     95 H95       -70.7120   24.8232  -73.6514 H         1 UNK         0.0784 
     96 H96       -73.1512   25.1299  -76.4827 H         1 UNK         0.3213 
     97 H97       -72.9505   23.4389  -79.6140 H         1 UNK         0.0855 
     98 H98       -74.3624   22.5405  -77.0472 H         1 UNK         0.0814 
     99 H99       -73.2885   21.5572  -78.0291 H         1 UNK         0.0814 
    100 H100      -74.8220   22.1010  -78.6893 H         1 UNK         0.0814 
    101 H101      -75.1850   24.5782  -78.2816 H         1 UNK         0.3105 
    102 H102      -74.8923   27.7842  -79.8954 H         1 UNK         0.0547 
    103 H103      -75.7964   26.1642  -81.5515 H         1 UNK         0.0837 
    104 H104      -76.7080   25.3453  -80.2898 H         1 UNK         0.0837 
    105 H105      -77.0967   27.0078  -80.7266 H         1 UNK         0.0837 
    106 H106      -76.4840   26.1910  -77.9207 H         1 UNK         0.3020 
    107 H107      -76.0706   28.6621  -75.4328 H         1 UNK         0.1245 
    108 H108      -78.5793   28.0603  -77.0898 H         1 UNK         0.0781 
    109 H109      -77.9689   29.6501  -76.7144 H         1 UNK         0.0781 
    110 H110      -79.4215   30.9351  -74.2222 H         1 UNK         0.0836 
    111 H111      -77.7179   30.6297  -74.4965 H         1 UNK         0.0836 
    112 H112      -77.5565   26.2492  -75.4437 H         1 UNK         0.3022 
    113 H113      -74.8912   23.9339  -75.2490 H         1 UNK         0.0747 
    114 H114      -75.7497   23.3124  -72.9682 H         1 UNK         0.0793 
    115 H115      -74.6485   24.6703  -72.9229 H         1 UNK         0.0793 
    116 H116      -76.3805   24.9489  -72.7715 H         1 UNK         0.0793 
    117 H117      -77.5467   23.4732  -74.5484 H         1 UNK         0.3047 
    118 H118      -79.3236   23.7577  -77.4698 H         1 UNK         0.0822 
    119 H119      -79.6569   21.2943  -77.4896 H         1 UNK         0.0807 
    120 H120      -78.1872   21.0611  -76.5409 H         1 UNK         0.0807 
    121 H121      -78.0932   21.6970  -78.1770 H         1 UNK         0.0807 
    122 H122      -79.8764   22.2437  -75.1250 H         1 UNK         0.2946 
    123 H123      -81.5960   23.4212  -73.6439 H         1 UNK         0.1144 
    124 H124      -80.2562   23.2179  -71.5120 H         1 UNK         0.0793 
    125 H125      -78.8525   23.8991  -72.3273 H         1 UNK         0.0793 
    126 H126      -79.4998   22.3397  -72.8247 H         1 UNK         0.0793 
    127 H127      -80.3834   25.8358  -72.4113 H         1 UNK         0.2896 
@<TRIPOS>BOND
     1    1    2 1    
     2    1   67 1    
     3    1   68 1    
     4    1   69 1    
     5    2    3 2    
     6    2    4 am   BACKBONE|DICT|INTERRES
     7    4    5 1    
     8    4   70 1    
     9    5    6 1    
    10    5   65 1    
    11    5   71 1    
    12    6    7 1    
    13    6   72 1    
    14    6   73 1    
    15    7    8 1    
    16    8    9 1    
    17    8   74 1    
    18    8   75 1    
    19    9   10 ar   
    20    9   14 ar   
    21   10   11 ar   
    22   10   76 1    
    23   11   12 ar   
    24   11   48 1    
    25   12   13 ar   
    26   12   77 1    
    27   13   14 ar   
    28   13   15 1    
    29   14   78 1    
    30   15   16 1    
    31   15   79 1    
    32   15   80 1    
    33   16   17 1    
    34   17   18 1    
    35   17   81 1    
    36   17   82 1    
    37   18   19 1    
    38   18   22 1    
    39   18   83 1    
    40   19   20 am   BACKBONE|DICT|INTERRES
    41   19   21 2    
    42   20   84 1    
    43   20   85 1    
    44   22   23 am   BACKBONE|DICT|INTERRES
    45   22   86 1    
    46   23   24 2    
    47   23   25 1    
    48   25   26 1    
    49   25   27 1    
    50   25   87 1    
    51   26   88 1    
    52   26   89 1    
    53   26   90 1    
    54   27   28 am   BACKBONE|DICT|INTERRES
    55   27   91 1    
    56   28   29 2    
    57   28   30 1    
    58   30   31 1    
    59   30   32 1    
    60   30   92 1    
    61   31   93 1    
    62   31   94 1    
    63   31   95 1    
    64   32   33 am   BACKBONE|DICT|INTERRES
    65   32   96 1    
    66   33   34 2    
    67   33   35 1    
    68   35   36 1    
    69   35   37 1    
    70   35   97 1    
    71   36   98 1    
    72   36   99 1    
    73   36  100 1    
    74   37   38 am   BACKBONE|DICT|INTERRES
    75   37  101 1    
    76   38   39 2    
    77   38   40 1    
    78   40   41 1    
    79   40   42 1    
    80   40  102 1    
    81   41  103 1    
    82   41  104 1    
    83   41  105 1    
    84   42   43 am   BACKBONE|DICT|INTERRES
    85   42  106 1    
    86   43   44 2    
    87   43   45 1    
    88   45   46 1    
    89   45   49 1    
    90   45  107 1    
    91   46   47 1    
    92   46  108 1    
    93   46  109 1    
    94   47   48 1    
    95   48  110 1    
    96   48  111 1    
    97   49   50 am   BACKBONE|DICT|INTERRES
    98   49  112 1    
    99   50   51 2    
   100   50   52 1    
   101   52   53 1    
   102   52   54 1    
   103   52  113 1    
   104   53  114 1    
   105   53  115 1    
   106   53  116 1    
   107   54   55 am   BACKBONE|DICT|INTERRES
   108   54  117 1    
   109   55   56 2    
   110   55   57 1    
   111   57   58 1    
   112   57   59 1    
   113   57  118 1    
   114   58  119 1    
   115   58  120 1    
   116   58  121 1    
   117   59   60 am   BACKBONE|DICT|INTERRES
   118   59  122 1    
   119   60   61 2    
   120   60   62 1    
   121   62   63 1    
   122   62   64 1    
   123   62  123 1    
   124   63  124 1    
   125   63  125 1    
   126   63  126 1    
   127   64   65 am   BACKBONE|DICT|INTERRES
   128   64  127 1    
   129   65   66 2    
@<TRIPOS>SUBSTRUCTURE
     1 UNK         1 GROUP             0       ****    0 ROOT    
