@<TRIPOS>MOLECULE
3R135
127   129    1
SMALL
USER_CHARGES


@<TRIPOS>ATOM
      1 CA        -80.8832   23.5068  -70.0186 C.3       0 UNK        -0.1998 
      2 C         -81.1564   24.5444  -71.0962 C.2       0 UNK         0.4909 
      3 O         -80.3235   24.7338  -71.9818 O.2       0 UNK        -0.5240 
      4 N         -82.3165   25.2123  -71.0274 N.am      1 UNK        -0.4739 
      5 CA        -82.8175   26.2588  -71.9355 C.3       1 UNK         0.0864 
      6 C6        -81.8886   27.4936  -72.0718 C.3       11 UNK        -0.0881 
      7 S7        -81.5691   28.3419  -70.4850 S.3       11 UNK        -0.2682 
      8 C8        -79.7783   28.0501  -70.2433 C.3       11 UNK         0.0289 
      9 C9        -78.8348   28.9287  -71.0721 C.ar      11 UNK        -0.0687 
     10 C10       -79.2271   29.5399  -72.2703 C.ar      11 UNK        -0.0823 
     11 C11       -78.3210   30.2822  -73.0299 C.ar      11 UNK        -0.0830 
     12 C12       -77.0139   30.4497  -72.5712 C.ar      11 UNK        -0.1021 
     13 C13       -76.6033   29.8518  -71.3782 C.ar      11 UNK        -0.0753 
     14 C14       -77.5140   29.0916  -70.6368 C.ar      11 UNK        -0.0933 
     15 C15       -75.1651   30.0091  -70.9171 C.3       11 UNK         0.0166 
     16 S16       -74.1031   28.7925  -71.7468 S.3       11 UNK        -0.2615 
     17 C17       -72.4448   29.4399  -71.3431 C.3       11 UNK        -0.0865 
     18 CA        -71.8329   30.3256  -72.4640 C.3       10 UNK         0.0862 
     19 C         -70.3963   30.7679  -72.0584 C.2       10 UNK         0.5551 
     20 N         -69.3428   30.2069  -72.6409 N.am      10 UNK        -0.7319 
     21 O         -70.2408   31.6292  -71.1964 O.2       10 UNK        -0.5018 
     22 N         -71.9358   29.6741  -73.7784 N.am      10 UNK        -0.4509 
     23 C         -71.6210   30.2004  -74.9692 C.2       10 UNK         0.4899 
     24 O         -71.2500   31.3646  -75.1234 O.2       10 UNK        -0.4839 
     25 CA        -71.7579   29.2778  -76.2011 C.3       9 UNK         0.0222 
     26 CB        -70.5810   29.4385  -77.1861 C.3       9 UNK        -0.1966 
     27 N         -71.9826   27.8614  -75.8688 N.am      9 UNK        -0.4218 
     28 C         -71.1456   27.0321  -75.2226 C.2       9 UNK         0.5020 
     29 O         -70.0110   27.3447  -74.8587 O.2       9 UNK        -0.5274 
     30 CA        -71.6822   25.6403  -74.8579 C.3       8 UNK         0.0270 
     31 CB        -72.3493   25.6787  -73.4731 C.3       8 UNK        -0.1976 
     32 N         -72.6266   25.1146  -75.8465 N.am      8 UNK        -0.4313 
     33 C         -72.2474   24.5441  -76.9994 C.2       8 UNK         0.5041 
     34 O         -71.0714   24.4022  -77.3382 O.2       8 UNK        -0.5577 
     35 CA        -73.3587   24.0380  -77.9336 C.3       7 UNK         0.0284 
     36 CB        -73.9397   22.7110  -77.4217 C.3       7 UNK        -0.1958 
     37 N         -74.4323   25.0140  -78.1278 N.am      7 UNK        -0.4454 
     38 C         -74.2828   26.1773  -78.7776 C.2       7 UNK         0.5089 
     39 O         -73.2255   26.5539  -79.2836 O.2       7 UNK        -0.5125 
     40 CA        -75.5235   27.0773  -78.8844 C.3       6 UNK         0.0408 
     41 CB        -76.3867   26.6697  -80.0889 C.3       6 UNK        -0.1791 
     42 N         -76.3420   27.0654  -77.6725 N.am      6 UNK        -0.4762 
     43 C         -75.9700   27.5911  -76.4966 C.2       6 UNK         0.5007 
     44 O         -74.8750   28.1163  -76.2942 O.2       6 UNK        -0.5032 
     45 CA        -76.9878   27.4609  -75.3427 C.3       5 UNK         0.0783 
     46 C46       -78.2486   28.3364  -75.5884 C.3       11 UNK        -0.0857 
     47 S47       -77.8836   30.1228  -75.7701 S.3       11 UNK        -0.2512 
     48 C48       -78.7543   30.8795  -74.3597 C.3       11 UNK         0.0225 
     49 N         -77.3516   26.0547  -75.1239 N.am      5 UNK        -0.4615 
     50 C         -76.4873   25.0525  -74.8848 C.2       4 UNK         0.5053 
     51 O         -75.2780   25.2093  -74.7239 O.2       4 UNK        -0.5105 
     52 CA        -77.0425   23.6156  -74.8981 C.3       4 UNK         0.0263 
     53 CB        -77.4181   23.1676  -73.4790 C.3       4 UNK        -0.1981 
     54 N         -78.1883   23.4413  -75.7931 N.am      4 UNK        -0.4224 
     55 C         -78.1892   23.7052  -77.1085 C.2       3 UNK         0.4895 
     56 O         -77.1782   24.0168  -77.7400 O.2       3 UNK        -0.5091 
     57 CA        -79.5434   23.6674  -77.8425 C.3       3 UNK         0.0250 
     58 CB        -79.6207   22.4296  -78.7506 C.3       3 UNK        -0.1996 
     59 N         -80.7348   23.7065  -76.9811 N.am      3 UNK        -0.4254 
     60 C         -81.0546   24.6675  -76.1004 C.2       2 UNK         0.5004 
     61 O         -80.3301   25.6374  -75.8595 O.2       2 UNK        -0.5226 
     62 CA        -82.3900   24.5093  -75.3521 C.3       2 UNK         0.0269 
     63 CB        -82.8903   23.0515  -75.2542 C.3       2 UNK        -0.1926 
     64 N         -82.2579   25.0679  -74.0096 N.am      2 UNK        -0.4687 
     65 C         -83.2066   25.7147  -73.3269 C.2       1 UNK         0.5165 
     66 O         -84.3513   25.8884  -73.7484 O.2       1 UNK        -0.5079 
     67 H67       -80.7472   22.5248  -70.4709 H         1 UNK         0.0900 
     68 H68       -81.6988   23.4401  -69.2989 H         1 UNK         0.0900 
     69 H69       -79.9726   23.7620  -69.4774 H         1 UNK         0.0900 
     70 H70       -82.9531   24.9810  -70.2772 H         1 UNK         0.2959 
     71 H71       -83.7474   26.6085  -71.4832 H         1 UNK         0.1079 
     72 H72       -80.9432   27.2120  -72.5385 H         1 UNK         0.0837 
     73 H73       -82.3429   28.2279  -72.7401 H         1 UNK         0.0837 
     74 H74       -79.5666   28.2068  -69.1845 H         1 UNK         0.0685 
     75 H75       -79.5524   27.0031  -70.4466 H         1 UNK         0.0685 
     76 H76       -80.2343   29.4337  -72.6388 H         1 UNK         0.1434 
     77 H77       -76.3071   31.0191  -73.1597 H         1 UNK         0.1329 
     78 H78       -77.1879   28.6143  -69.7226 H         1 UNK         0.1335 
     79 H79       -74.8140   31.0175  -71.1430 H         1 UNK         0.0680 
     80 H80       -75.0891   29.8848  -69.8358 H         1 UNK         0.0680 
     81 H81       -72.4928   29.9915  -70.4018 H         1 UNK         0.1032 
     82 H82       -71.8000   28.5802  -71.1500 H         1 UNK         0.1032 
     83 H83       -72.4290   31.2377  -72.5281 H         1 UNK         0.0461 
     84 H84       -69.4700   29.4944  -73.3444 H         1 UNK         0.3453 
     85 H85       -68.4152   30.4970  -72.3751 H         1 UNK         0.3453 
     86 H86       -72.2659   28.7216  -73.7605 H         1 UNK         0.2984 
     87 H87       -72.6597   29.6068  -76.7186 H         1 UNK         0.0554 
     88 H88       -70.7008   28.7900  -78.0541 H         1 UNK         0.0847 
     89 H89       -69.6239   29.2036  -76.7199 H         1 UNK         0.0847 
     90 H90       -70.5169   30.4627  -77.5554 H         1 UNK         0.0847 
     91 H91       -72.9217   27.5338  -76.0751 H         1 UNK         0.3141 
     92 H92       -70.8276   24.9627  -74.7959 H         1 UNK         0.0743 
     93 H93       -73.2082   26.3506  -73.4558 H         1 UNK         0.0784 
     94 H94       -72.6952   24.6897  -73.1720 H         1 UNK         0.0784 
     95 H95       -71.6502   26.0245  -72.7104 H         1 UNK         0.0784 
     96 H96       -73.6163   25.1721  -75.6107 H         1 UNK         0.3213 
     97 H97       -72.9093   23.8494  -78.9112 H         1 UNK         0.0855 
     98 H98       -74.3304   22.8069  -76.4101 H         1 UNK         0.0814 
     99 H99       -73.1716   21.9370  -77.3978 H         1 UNK         0.0814 
    100 H100      -74.7446   22.3512  -78.0631 H         1 UNK         0.0814 
    101 H101      -75.3608   24.7593  -77.8014 H         1 UNK         0.3105 
    102 H102      -75.1784   28.1010  -79.0452 H         1 UNK         0.0547 
    103 H103      -75.8039   26.6932  -81.0108 H         1 UNK         0.0837 
    104 H104      -76.7832   25.6593  -79.9806 H         1 UNK         0.0837 
    105 H105      -77.2287   27.3489  -80.2225 H         1 UNK         0.0837 
    106 H106      -77.2302   26.5882  -77.7289 H         1 UNK         0.3020 
    107 H107      -76.4964   27.8133  -74.4324 H         1 UNK         0.1245 
    108 H108      -78.9603   28.1916  -74.7750 H         1 UNK         0.0781 
    109 H109      -78.7736   28.0085  -76.4874 H         1 UNK         0.0781 
    110 H110      -79.8297   30.7699  -74.5087 H         1 UNK         0.0836 
    111 H111      -78.5545   31.9519  -74.3535 H         1 UNK         0.0836 
    112 H112      -78.3306   25.8243  -75.2597 H         1 UNK         0.3022 
    113 H113      -76.2520   22.9569  -75.2569 H         1 UNK         0.0747 
    114 H114      -77.7575   22.1318  -73.4621 H         1 UNK         0.0793 
    115 H115      -76.5600   23.2385  -72.8091 H         1 UNK         0.0793 
    116 H116      -78.2078   23.7891  -73.0598 H         1 UNK         0.0793 
    117 H117      -79.0673   23.1986  -75.3611 H         1 UNK         0.3047 
    118 H118      -79.5770   24.5564  -78.4756 H         1 UNK         0.0822 
    119 H119      -80.5184   22.4446  -79.3691 H         1 UNK         0.0807 
    120 H120      -79.6245   21.5047  -78.1724 H         1 UNK         0.0807 
    121 H121      -78.7662   22.3864  -79.4278 H         1 UNK         0.0807 
    122 H122      -81.3855   22.9426  -77.0957 H         1 UNK         0.2946 
    123 H123      -83.1229   25.0941  -75.9126 H         1 UNK         0.1144 
    124 H124      -82.1565   22.4037  -74.7726 H         1 UNK         0.0793 
    125 H125      -83.1155   22.6351  -76.2366 H         1 UNK         0.0793 
    126 H126      -83.8113   22.9915  -74.6738 H         1 UNK         0.0793 
    127 H127      -81.3416   24.9868  -73.5736 H         1 UNK         0.2896 
@<TRIPOS>BOND
     1    1    2 1    
     2    1   67 1    
     3    1   68 1    
     4    1   69 1    
     5    2    3 2    
     6    2    4 am   BACKBONE|DICT|INTERRES
     7    4    5 1    
     8    4   70 1    
     9    5    6 1    
    10    5   65 1    
    11    5   71 1    
    12    6    7 1    
    13    6   72 1    
    14    6   73 1    
    15    7    8 1    
    16    8    9 1    
    17    8   74 1    
    18    8   75 1    
    19    9   10 ar   
    20    9   14 ar   
    21   10   11 ar   
    22   10   76 1    
    23   11   12 ar   
    24   11   48 1    
    25   12   13 ar   
    26   12   77 1    
    27   13   14 ar   
    28   13   15 1    
    29   14   78 1    
    30   15   16 1    
    31   15   79 1    
    32   15   80 1    
    33   16   17 1    
    34   17   18 1    
    35   17   81 1    
    36   17   82 1    
    37   18   19 1    
    38   18   22 1    
    39   18   83 1    
    40   19   20 am   BACKBONE|DICT|INTERRES
    41   19   21 2    
    42   20   84 1    
    43   20   85 1    
    44   22   23 am   BACKBONE|DICT|INTERRES
    45   22   86 1    
    46   23   24 2    
    47   23   25 1    
    48   25   26 1    
    49   25   27 1    
    50   25   87 1    
    51   26   88 1    
    52   26   89 1    
    53   26   90 1    
    54   27   28 am   BACKBONE|DICT|INTERRES
    55   27   91 1    
    56   28   29 2    
    57   28   30 1    
    58   30   31 1    
    59   30   32 1    
    60   30   92 1    
    61   31   93 1    
    62   31   94 1    
    63   31   95 1    
    64   32   33 am   BACKBONE|DICT|INTERRES
    65   32   96 1    
    66   33   34 2    
    67   33   35 1    
    68   35   36 1    
    69   35   37 1    
    70   35   97 1    
    71   36   98 1    
    72   36   99 1    
    73   36  100 1    
    74   37   38 am   BACKBONE|DICT|INTERRES
    75   37  101 1    
    76   38   39 2    
    77   38   40 1    
    78   40   41 1    
    79   40   42 1    
    80   40  102 1    
    81   41  103 1    
    82   41  104 1    
    83   41  105 1    
    84   42   43 am   BACKBONE|DICT|INTERRES
    85   42  106 1    
    86   43   44 2    
    87   43   45 1    
    88   45   46 1    
    89   45   49 1    
    90   45  107 1    
    91   46   47 1    
    92   46  108 1    
    93   46  109 1    
    94   47   48 1    
    95   48  110 1    
    96   48  111 1    
    97   49   50 am   BACKBONE|DICT|INTERRES
    98   49  112 1    
    99   50   51 2    
   100   50   52 1    
   101   52   53 1    
   102   52   54 1    
   103   52  113 1    
   104   53  114 1    
   105   53  115 1    
   106   53  116 1    
   107   54   55 am   BACKBONE|DICT|INTERRES
   108   54  117 1    
   109   55   56 2    
   110   55   57 1    
   111   57   58 1    
   112   57   59 1    
   113   57  118 1    
   114   58  119 1    
   115   58  120 1    
   116   58  121 1    
   117   59   60 am   BACKBONE|DICT|INTERRES
   118   59  122 1    
   119   60   61 2    
   120   60   62 1    
   121   62   63 1    
   122   62   64 1    
   123   62  123 1    
   124   63  124 1    
   125   63  125 1    
   126   63  126 1    
   127   64   65 am   BACKBONE|DICT|INTERRES
   128   64  127 1    
   129   65   66 2    
@<TRIPOS>SUBSTRUCTURE
     1 UNK         1 GROUP             0       ****    0 ROOT    
