@<TRIPOS>MOLECULE
3R135
127   129    1
SMALL
USER_CHARGES


@<TRIPOS>ATOM
      1 CA        -85.9472   25.8305  -71.6950 C.3       0 UNK        -0.1998 
      2 C         -84.7405   26.2059  -72.5414 C.2       0 UNK         0.4909 
      3 O         -84.0573   25.3147  -73.0456 O.2       0 UNK        -0.5240 
      4 N         -84.5045   27.5168  -72.7185 N.am      1 UNK        -0.4739 
      5 CA        -83.3799   28.1812  -73.4108 C.3       1 UNK         0.0864 
      6 C6        -82.1027   28.3317  -72.5280 C.3       11 UNK        -0.0881 
      7 S7        -81.3207   26.7716  -71.9833 S.3       11 UNK        -0.2682 
      8 C8        -80.2879   27.3273  -70.5913 C.3       11 UNK         0.0289 
      9 C9        -78.8149   27.4228  -70.9673 C.ar      11 UNK        -0.0687 
     10 C10       -77.9194   26.4280  -70.5570 C.ar      11 UNK        -0.0823 
     11 C11       -76.5540   26.5452  -70.8330 C.ar      11 UNK        -0.0830 
     12 C12       -76.0938   27.6637  -71.5285 C.ar      11 UNK        -0.1021 
     13 C13       -76.9784   28.6373  -72.0026 C.ar      11 UNK        -0.0753 
     14 C14       -78.3395   28.5167  -71.6993 C.ar      11 UNK        -0.0933 
     15 C15       -76.4822   29.8332  -72.8170 C.3       11 UNK         0.0166 
     16 S16       -75.2224   29.4024  -74.0742 S.3       11 UNK        -0.2615 
     17 C17       -73.6737   29.4905  -73.1063 C.3       11 UNK        -0.0865 
     18 CA        -72.6096   30.4082  -73.7577 C.3       10 UNK         0.0862 
     19 C         -71.4966   30.7732  -72.7275 C.2       10 UNK         0.5551 
     20 N         -70.2482   30.3527  -72.8959 N.am      10 UNK        -0.7319 
     21 O         -71.7777   31.4613  -71.7493 O.2       10 UNK        -0.5018 
     22 N         -72.1162   29.8266  -75.0151 N.am      10 UNK        -0.4509 
     23 C         -71.4034   30.4856  -75.9378 C.2       10 UNK         0.4899 
     24 O         -71.2082   31.7018  -75.9081 O.2       10 UNK        -0.4839 
     25 CA        -70.7908   29.6354  -77.0712 C.3       9 UNK         0.0222 
     26 CB        -69.5628   30.3075  -77.7205 C.3       9 UNK        -0.1966 
     27 N         -70.4697   28.2585  -76.6655 N.am      9 UNK        -0.4218 
     28 C         -69.6590   27.8685  -75.6656 C.2       9 UNK         0.5020 
     29 O         -69.0331   28.6576  -74.9564 O.2       9 UNK        -0.5274 
     30 CA        -69.5563   26.3611  -75.3599 C.3       8 UNK         0.0270 
     31 CB        -69.8623   26.0846  -73.8760 C.3       8 UNK        -0.1976 
     32 N         -70.4714   25.5665  -76.1810 N.am      8 UNK        -0.4313 
     33 C         -70.1387   24.9386  -77.3182 C.2       8 UNK         0.5041 
     34 O         -68.9902   24.8836  -77.7589 O.2       8 UNK        -0.5577 
     35 CA        -71.2806   24.2834  -78.1217 C.3       7 UNK         0.0284 
     36 CB        -71.3696   22.7826  -77.8010 C.3       7 UNK        -0.1958 
     37 N         -72.5907   24.9033  -77.8960 N.am      7 UNK        -0.4454 
     38 C         -72.9004   26.1768  -78.1789 C.2       7 UNK         0.5089 
     39 O         -72.1321   26.9543  -78.7432 O.2       7 UNK        -0.5125 
     40 CA        -74.2606   26.6964  -77.6838 C.3       6 UNK         0.0408 
     41 CB        -75.2949   26.6700  -78.8189 C.3       6 UNK        -0.1791 
     42 N         -74.7950   25.9717  -76.5266 N.am      6 UNK        -0.4762 
     43 C         -74.2258   25.8711  -75.3166 C.2       6 UNK         0.5007 
     44 O         -73.1192   26.3482  -75.0523 O.2       6 UNK        -0.5032 
     45 CA        -75.0355   25.1098  -74.2405 C.3       5 UNK         0.0783 
     46 C46       -74.2962   25.0250  -72.8777 C.3       11 UNK        -0.0857 
     47 S47       -75.2776   24.1747  -71.5868 S.3       11 UNK        -0.2512 
     48 C48       -75.5650   25.4891  -70.3529 C.3       11 UNK         0.0225 
     49 N         -76.3853   25.6666  -74.1035 N.am      5 UNK        -0.4615 
     50 C         -77.4156   25.4377  -74.9238 C.2       4 UNK         0.5053 
     51 O         -77.3340   24.7710  -75.9591 O.2       4 UNK        -0.5105 
     52 CA        -78.7328   26.1286  -74.5488 C.3       4 UNK         0.0263 
     53 CB        -78.7590   27.5531  -75.1257 C.3       4 UNK        -0.1981 
     54 N         -79.9231   25.3981  -74.9927 N.am      4 UNK        -0.4224 
     55 C         -80.2675   24.1628  -74.5971 C.2       3 UNK         0.4895 
     56 O         -79.6114   23.5015  -73.7895 O.2       3 UNK        -0.5091 
     57 CA        -81.5625   23.5641  -75.1854 C.3       3 UNK         0.0250 
     58 CB        -82.2001   22.5238  -74.2450 C.3       3 UNK        -0.1996 
     59 N         -82.5593   24.5951  -75.4803 N.am      3 UNK        -0.4254 
     60 C         -82.7715   25.1549  -76.6801 C.2       2 UNK         0.5004 
     61 O         -82.1617   24.8348  -77.7003 O.2       2 UNK        -0.5226 
     62 CA        -83.8205   26.2827  -76.7568 C.3       2 UNK         0.0269 
     63 CB        -85.1693   25.7309  -77.2454 C.3       2 UNK        -0.1926 
     64 N         -84.0181   26.9709  -75.4776 N.am      2 UNK        -0.4687 
     65 C         -83.0849   27.7059  -74.8562 C.2       1 UNK         0.5165 
     66 O         -82.0249   28.0172  -75.3989 O.2       1 UNK        -0.5079 
     67 H67       -86.4774   26.7078  -71.3249 H         1 UNK         0.0900 
     68 H68       -85.6301   25.2391  -70.8365 H         1 UNK         0.0900 
     69 H69       -86.6452   25.2333  -72.2809 H         1 UNK         0.0900 
     70 H70       -85.1538   28.1636  -72.2920 H         1 UNK         0.2959 
     71 H71       -83.7413   29.1988  -73.5683 H         1 UNK         0.1079 
     72 H72       -82.3706   28.9017  -71.6375 H         1 UNK         0.0837 
     73 H73       -81.3492   28.9346  -73.0376 H         1 UNK         0.0837 
     74 H74       -80.6344   28.2903  -70.2145 H         1 UNK         0.0685 
     75 H75       -80.4189   26.6228  -69.7686 H         1 UNK         0.0685 
     76 H76       -78.2820   25.5725  -70.0032 H         1 UNK         0.1434 
     77 H77       -75.0372   27.7647  -71.7058 H         1 UNK         0.1329 
     78 H78       -79.0342   29.2765  -72.0296 H         1 UNK         0.1335 
     79 H79       -76.0997   30.6009  -72.1435 H         1 UNK         0.0680 
     80 H80       -77.3219   30.2874  -73.3454 H         1 UNK         0.0680 
     81 H81       -73.2725   28.4819  -72.9915 H         1 UNK         0.1032 
     82 H82       -73.9107   29.8363  -72.0983 H         1 UNK         0.1032 
     83 H83       -73.0959   31.3532  -74.0082 H         1 UNK         0.0461 
     84 H84       -69.9779   29.7920  -73.6982 H         1 UNK         0.3453 
     85 H85       -69.5521   30.6085  -72.2145 H         1 UNK         0.3453 
     86 H86       -72.2455   28.8303  -75.1222 H         1 UNK         0.2984 
     87 H87       -71.5644   29.5535  -77.8357 H         1 UNK         0.0554 
     88 H88       -69.1590   29.6986  -78.5294 H         1 UNK         0.0847 
     89 H89       -68.7647   30.4765  -76.9967 H         1 UNK         0.0847 
     90 H90       -69.8247   31.2764  -78.1475 H         1 UNK         0.0847 
     91 H91       -70.9307   27.5418  -77.2159 H         1 UNK         0.3141 
     92 H92       -68.5241   26.0625  -75.5536 H         1 UNK         0.0743 
     93 H93       -70.8592   26.4269  -73.5962 H         1 UNK         0.0784 
     94 H94       -69.7973   25.0204  -73.6492 H         1 UNK         0.0784 
     95 H95       -69.1502   26.5955  -73.2265 H         1 UNK         0.0784 
     96 H96       -71.4460   25.5896  -75.8953 H         1 UNK         0.3213 
     97 H97       -71.0390   24.3959  -79.1809 H         1 UNK         0.0855 
     98 H98       -71.6295   22.6065  -76.7564 H         1 UNK         0.0814 
     99 H99       -70.4152   22.2876  -77.9865 H         1 UNK         0.0814 
    100 H100      -72.1149   22.2861  -78.4228 H         1 UNK         0.0814 
    101 H101      -73.2918   24.3398  -77.4375 H         1 UNK         0.3105 
    102 H102      -74.1173   27.7346  -77.3766 H         1 UNK         0.0547 
    103 H103      -75.5068   25.6522  -79.1487 H         1 UNK         0.0837 
    104 H104      -76.2357   27.1251  -78.5087 H         1 UNK         0.0837 
    105 H105      -74.9379   27.2270  -79.6864 H         1 UNK         0.0837 
    106 H106      -75.7141   25.5495  -76.6349 H         1 UNK         0.3020 
    107 H107      -75.1375   24.0857  -74.6073 H         1 UNK         0.1245 
    108 H108      -73.3645   24.4692  -72.9986 H         1 UNK         0.0781 
    109 H109      -73.9976   26.0122  -72.5286 H         1 UNK         0.0781 
    110 H110      -75.9386   25.0281  -69.4373 H         1 UNK         0.0836 
    111 H111      -74.6137   25.9520  -70.0854 H         1 UNK         0.0836 
    112 H112      -76.5329   26.2508  -73.2909 H         1 UNK         0.3022 
    113 H113      -78.7760   26.1880  -73.4614 H         1 UNK         0.0747 
    114 H114      -79.5568   28.1427  -74.6770 H         1 UNK         0.0793 
    115 H115      -77.8277   28.0820  -74.9224 H         1 UNK         0.0793 
    116 H116      -78.9015   27.5511  -76.2068 H         1 UNK         0.0793 
    117 H117      -80.5261   25.8770  -75.6458 H         1 UNK         0.3047 
    118 H118      -81.2800   23.0495  -76.1060 H         1 UNK         0.0822 
    119 H119      -83.1128   22.1089  -74.6730 H         1 UNK         0.0807 
    120 H120      -82.4525   22.9616  -73.2781 H         1 UNK         0.0807 
    121 H121      -81.5226   21.6890  -74.0611 H         1 UNK         0.0807 
    122 H122      -83.0890   24.9379  -74.6807 H         1 UNK         0.2946 
    123 H123      -83.4600   27.0137  -77.4843 H         1 UNK         0.1144 
    124 H124      -85.9012   26.5283  -77.3756 H         1 UNK         0.0793 
    125 H125      -85.5843   25.0029  -76.5470 H         1 UNK         0.0793 
    126 H126      -85.0604   25.2324  -78.2097 H         1 UNK         0.0793 
    127 H127      -84.8575   26.7474  -74.9625 H         1 UNK         0.2896 
@<TRIPOS>BOND
     1    1    2 1    
     2    1   67 1    
     3    1   68 1    
     4    1   69 1    
     5    2    3 2    
     6    2    4 am   BACKBONE|DICT|INTERRES
     7    4    5 1    
     8    4   70 1    
     9    5    6 1    
    10    5   65 1    
    11    5   71 1    
    12    6    7 1    
    13    6   72 1    
    14    6   73 1    
    15    7    8 1    
    16    8    9 1    
    17    8   74 1    
    18    8   75 1    
    19    9   10 ar   
    20    9   14 ar   
    21   10   11 ar   
    22   10   76 1    
    23   11   12 ar   
    24   11   48 1    
    25   12   13 ar   
    26   12   77 1    
    27   13   14 ar   
    28   13   15 1    
    29   14   78 1    
    30   15   16 1    
    31   15   79 1    
    32   15   80 1    
    33   16   17 1    
    34   17   18 1    
    35   17   81 1    
    36   17   82 1    
    37   18   19 1    
    38   18   22 1    
    39   18   83 1    
    40   19   20 am   BACKBONE|DICT|INTERRES
    41   19   21 2    
    42   20   84 1    
    43   20   85 1    
    44   22   23 am   BACKBONE|DICT|INTERRES
    45   22   86 1    
    46   23   24 2    
    47   23   25 1    
    48   25   26 1    
    49   25   27 1    
    50   25   87 1    
    51   26   88 1    
    52   26   89 1    
    53   26   90 1    
    54   27   28 am   BACKBONE|DICT|INTERRES
    55   27   91 1    
    56   28   29 2    
    57   28   30 1    
    58   30   31 1    
    59   30   32 1    
    60   30   92 1    
    61   31   93 1    
    62   31   94 1    
    63   31   95 1    
    64   32   33 am   BACKBONE|DICT|INTERRES
    65   32   96 1    
    66   33   34 2    
    67   33   35 1    
    68   35   36 1    
    69   35   37 1    
    70   35   97 1    
    71   36   98 1    
    72   36   99 1    
    73   36  100 1    
    74   37   38 am   BACKBONE|DICT|INTERRES
    75   37  101 1    
    76   38   39 2    
    77   38   40 1    
    78   40   41 1    
    79   40   42 1    
    80   40  102 1    
    81   41  103 1    
    82   41  104 1    
    83   41  105 1    
    84   42   43 am   BACKBONE|DICT|INTERRES
    85   42  106 1    
    86   43   44 2    
    87   43   45 1    
    88   45   46 1    
    89   45   49 1    
    90   45  107 1    
    91   46   47 1    
    92   46  108 1    
    93   46  109 1    
    94   47   48 1    
    95   48  110 1    
    96   48  111 1    
    97   49   50 am   BACKBONE|DICT|INTERRES
    98   49  112 1    
    99   50   51 2    
   100   50   52 1    
   101   52   53 1    
   102   52   54 1    
   103   52  113 1    
   104   53  114 1    
   105   53  115 1    
   106   53  116 1    
   107   54   55 am   BACKBONE|DICT|INTERRES
   108   54  117 1    
   109   55   56 2    
   110   55   57 1    
   111   57   58 1    
   112   57   59 1    
   113   57  118 1    
   114   58  119 1    
   115   58  120 1    
   116   58  121 1    
   117   59   60 am   BACKBONE|DICT|INTERRES
   118   59  122 1    
   119   60   61 2    
   120   60   62 1    
   121   62   63 1    
   122   62   64 1    
   123   62  123 1    
   124   63  124 1    
   125   63  125 1    
   126   63  126 1    
   127   64   65 am   BACKBONE|DICT|INTERRES
   128   64  127 1    
   129   65   66 2    
@<TRIPOS>SUBSTRUCTURE
     1 UNK         1 GROUP             0       ****    0 ROOT    
