@<TRIPOS>MOLECULE
3R135
127   129    1
SMALL
USER_CHARGES


@<TRIPOS>ATOM
      1 CA        -84.7368   27.6403  -72.4983 C.3       0 UNK        -0.1998 
      2 C         -83.2886   27.4614  -72.9264 C.2       0 UNK         0.4909 
      3 O         -82.9019   27.9248  -73.9999 O.2       0 UNK        -0.5240 
      4 N         -82.4806   26.7791  -72.1057 N.am      1 UNK        -0.4739 
      5 CA        -81.0481   26.5355  -72.3280 C.3       1 UNK         0.0864 
      6 C6        -80.2652   26.4110  -70.9914 C.3       11 UNK        -0.0881 
      7 S7        -80.5813   27.8018  -69.8423 S.3       11 UNK        -0.2682 
      8 C8        -78.9614   28.6482  -69.7472 C.3       11 UNK         0.0289 
      9 C9        -78.5024   29.3810  -71.0107 C.ar      11 UNK        -0.0687 
     10 C10       -79.3727   29.7086  -72.0569 C.ar      11 UNK        -0.0823 
     11 C11       -78.8976   30.3231  -73.2181 C.ar      11 UNK        -0.0830 
     12 C12       -77.5457   30.6675  -73.3080 C.ar      11 UNK        -0.1021 
     13 C13       -76.6608   30.3735  -72.2667 C.ar      11 UNK        -0.0753 
     14 C14       -77.1542   29.7385  -71.1184 C.ar      11 UNK        -0.0933 
     15 C15       -75.1919   30.7755  -72.4165 C.3       11 UNK         0.0166 
     16 S16       -74.0091   29.7979  -71.4264 S.3       11 UNK        -0.2615 
     17 C17       -74.0676   28.1678  -72.2500 C.3       11 UNK        -0.0865 
     18 CA        -72.6529   27.5396  -72.3656 C.3       10 UNK         0.0862 
     19 C         -72.7047   26.0367  -72.7715 C.2       10 UNK         0.5551 
     20 N         -71.9858   25.5830  -73.7914 N.am      10 UNK        -0.7319 
     21 O         -73.3933   25.2540  -72.1238 O.2       10 UNK        -0.5018 
     22 N         -71.7620   28.3591  -73.2020 N.am      10 UNK        -0.4509 
     23 C         -70.4372   28.4576  -73.0396 C.2       10 UNK         0.4899 
     24 O         -69.8183   27.9255  -72.1162 O.2       10 UNK        -0.4839 
     25 CA        -69.6811   29.2874  -74.0995 C.3       9 UNK         0.0222 
     26 CB        -68.1602   29.0218  -74.0890 C.3       9 UNK        -0.1966 
     27 N         -70.2182   29.1341  -75.4607 N.am      9 UNK        -0.4218 
     28 C         -70.3631   27.9881  -76.1428 C.2       9 UNK         0.5020 
     29 O         -70.0671   26.8748  -75.7003 O.2       9 UNK        -0.5274 
     30 CA        -70.9169   28.1176  -77.5713 C.3       8 UNK         0.0270 
     31 CB        -69.7735   28.3629  -78.5698 C.3       8 UNK        -0.1976 
     32 N         -71.6551   26.9197  -77.9750 N.am      8 UNK        -0.4313 
     33 C         -72.8414   26.5554  -77.4743 C.2       8 UNK         0.5041 
     34 O         -73.4711   27.2153  -76.6427 O.2       8 UNK        -0.5577 
     35 CA        -73.4001   25.2100  -77.9660 C.3       7 UNK         0.0284 
     36 CB        -73.1121   24.1043  -76.9381 C.3       7 UNK        -0.1958 
     37 N         -74.8420   25.2993  -78.1906 N.am      7 UNK        -0.4454 
     38 C         -75.4062   25.9375  -79.2261 C.2       7 UNK         0.5089 
     39 O         -74.7715   26.3903  -80.1800 O.2       7 UNK        -0.5125 
     40 CA        -76.9343   26.1245  -79.1815 C.3       6 UNK         0.0408 
     41 CB        -77.6517   24.8465  -79.6429 C.3       6 UNK        -0.1791 
     42 N         -77.4178   26.5036  -77.8520 N.am      6 UNK        -0.4762 
     43 C         -77.0907   27.6380  -77.2082 C.2       6 UNK         0.5007 
     44 O         -76.4430   28.5536  -77.7163 O.2       6 UNK        -0.5032 
     45 CA        -77.5175   27.7328  -75.7347 C.3       5 UNK         0.0783 
     46 C46       -79.0050   28.1424  -75.5745 C.3       11 UNK        -0.0857 
     47 S47       -79.2810   29.9065  -75.9634 S.3       11 UNK        -0.2512 
     48 C48       -79.8533   30.5989  -74.3734 C.3       11 UNK         0.0225 
     49 N         -77.1906   26.4531  -75.1124 N.am      5 UNK        -0.4615 
     50 C         -77.0390   26.1920  -73.8146 C.2       4 UNK         0.5053 
     51 O         -77.2306   27.0179  -72.9281 O.2       4 UNK        -0.5105 
     52 CA        -76.6094   24.7541  -73.4588 C.3       4 UNK         0.0263 
     53 CB        -76.7022   24.4576  -71.9503 C.3       4 UNK        -0.1981 
     54 N         -77.4008   23.7610  -74.1880 N.am      4 UNK        -0.4224 
     55 C         -77.1823   23.3702  -75.4514 C.2       3 UNK         0.4895 
     56 O         -76.2597   23.7932  -76.1477 O.2       3 UNK        -0.5091 
     57 CA        -78.2385   22.4477  -76.0799 C.3       3 UNK         0.0250 
     58 CB        -78.0193   20.9896  -75.6476 C.3       3 UNK        -0.1996 
     59 N         -79.6042   22.8646  -75.7511 N.am      3 UNK        -0.4254 
     60 C         -80.1319   24.0591  -76.0575 C.2       2 UNK         0.5004 
     61 O         -79.5461   24.9123  -76.7264 O.2       2 UNK        -0.5226 
     62 CA        -81.5349   24.3751  -75.5122 C.3       2 UNK         0.0269 
     63 CB        -82.3261   23.1344  -75.0382 C.3       2 UNK        -0.1926 
     64 N         -81.4875   25.3885  -74.4521 N.am      2 UNK        -0.4687 
     65 C         -80.8327   25.3353  -73.2809 C.2       1 UNK         0.5165 
     66 O         -80.1281   24.3844  -72.9354 O.2       1 UNK        -0.5079 
     67 H67       -84.9345   27.1829  -71.5290 H         1 UNK         0.0900 
     68 H68       -85.4033   27.1862  -73.2310 H         1 UNK         0.0900 
     69 H69       -84.9779   28.7006  -72.4284 H         1 UNK         0.0900 
     70 H70       -82.8516   26.4055  -71.2434 H         1 UNK         0.2959 
     71 H71       -80.6381   27.3960  -72.8524 H         1 UNK         0.1079 
     72 H72       -80.5318   25.4860  -70.4770 H         1 UNK         0.0837 
     73 H73       -79.1941   26.3511  -71.1886 H         1 UNK         0.0837 
     74 H74       -79.0064   29.3730  -68.9335 H         1 UNK         0.0685 
     75 H75       -78.2090   27.9112  -69.4612 H         1 UNK         0.0685 
     76 H76       -80.4238   29.4730  -71.9816 H         1 UNK         0.1434 
     77 H77       -77.1801   31.1542  -74.2020 H         1 UNK         0.1329 
     78 H78       -76.4870   29.5042  -70.3016 H         1 UNK         0.1335 
     79 H79       -75.0961   31.8221  -72.1251 H         1 UNK         0.0680 
     80 H80       -74.8925   30.7192  -73.4644 H         1 UNK         0.0680 
     81 H81       -74.5297   28.2566  -73.2349 H         1 UNK         0.1032 
     82 H82       -74.7326   27.5305  -71.6636 H         1 UNK         0.1032 
     83 H83       -72.2387   27.5305  -71.3554 H         1 UNK         0.0461 
     84 H84       -72.0231   24.6021  -74.0120 H         1 UNK         0.3453 
     85 H85       -71.3860   26.1966  -74.3315 H         1 UNK         0.3453 
     86 H86       -72.1877   28.8045  -74.0011 H         1 UNK         0.2984 
     87 H87       -69.8337   30.3326  -73.8267 H         1 UNK         0.0554 
     88 H88       -67.6439   29.6374  -74.8255 H         1 UNK         0.0847 
     89 H89       -67.9314   27.9776  -74.3052 H         1 UNK         0.0847 
     90 H90       -67.7272   29.2545  -73.1153 H         1 UNK         0.0847 
     91 H91       -70.4979   29.9934  -75.9146 H         1 UNK         0.3141 
     92 H92       -71.6033   28.9666  -77.6072 H         1 UNK         0.0743 
     93 H93       -69.0590   27.5384  -78.5759 H         1 UNK         0.0784 
     94 H94       -70.1517   28.4880  -79.5847 H         1 UNK         0.0784 
     95 H95       -69.2207   29.2693  -78.3186 H         1 UNK         0.0784 
     96 H96       -71.1841   26.2965  -78.6146 H         1 UNK         0.3213 
     97 H97       -72.9193   24.9409  -78.9091 H         1 UNK         0.0855 
     98 H98       -73.5694   24.3266  -75.9729 H         1 UNK         0.0814 
     99 H99       -72.0396   23.9936  -76.7729 H         1 UNK         0.0814 
    100 H100      -73.4931   23.1396  -77.2735 H         1 UNK         0.0814 
    101 H101      -75.4334   24.9273  -77.4532 H         1 UNK         0.3105 
    102 H102      -77.1946   26.9301  -79.8711 H         1 UNK         0.0547 
    103 H103      -77.3379   24.5648  -80.6489 H         1 UNK         0.0837 
    104 H104      -77.4365   24.0036  -78.9858 H         1 UNK         0.0837 
    105 H105      -78.7329   24.9841  -79.6665 H         1 UNK         0.0837 
    106 H106      -78.0653   25.8568  -77.4043 H         1 UNK         0.3020 
    107 H107      -76.8900   28.4886  -75.2565 H         1 UNK         0.1245 
    108 H108      -79.3261   27.9568  -74.5527 H         1 UNK         0.0781 
    109 H109      -79.6576   27.5342  -76.2027 H         1 UNK         0.0781 
    110 H110      -80.8454   30.1957  -74.1622 H         1 UNK         0.0836 
    111 H111      -79.9764   31.6772  -74.4812 H         1 UNK         0.0836 
    112 H112      -76.9704   25.7032  -75.7567 H         1 UNK         0.3022 
    113 H113      -75.5619   24.6561  -73.7517 H         1 UNK         0.0747 
    114 H114      -76.1166   25.1738  -71.3724 H         1 UNK         0.0793 
    115 H115      -77.7294   24.5066  -71.5901 H         1 UNK         0.0793 
    116 H116      -76.3128   23.4661  -71.7198 H         1 UNK         0.0793 
    117 H117      -78.2625   23.4733  -73.7391 H         1 UNK         0.3047 
    118 H118      -78.1263   22.5033  -77.1644 H         1 UNK         0.0822 
    119 H119      -78.7133   20.3176  -76.1528 H         1 UNK         0.0807 
    120 H120      -78.1486   20.8602  -74.5723 H         1 UNK         0.0807 
    121 H121      -77.0103   20.6577  -75.8970 H         1 UNK         0.0807 
    122 H122      -80.1531   22.2321  -75.1871 H         1 UNK         0.2946 
    123 H123      -82.0849   24.8182  -76.3442 H         1 UNK         0.1144 
    124 H124      -82.3957   22.3851  -75.8282 H         1 UNK         0.0793 
    125 H125      -81.8767   22.6592  -74.1656 H         1 UNK         0.0793 
    126 H126      -83.3470   23.4063  -74.7695 H         1 UNK         0.0793 
    127 H127      -82.0265   26.2321  -74.6258 H         1 UNK         0.2896 
@<TRIPOS>BOND
     1    1    2 1    
     2    1   67 1    
     3    1   68 1    
     4    1   69 1    
     5    2    3 2    
     6    2    4 am   BACKBONE|DICT|INTERRES
     7    4    5 1    
     8    4   70 1    
     9    5    6 1    
    10    5   65 1    
    11    5   71 1    
    12    6    7 1    
    13    6   72 1    
    14    6   73 1    
    15    7    8 1    
    16    8    9 1    
    17    8   74 1    
    18    8   75 1    
    19    9   10 ar   
    20    9   14 ar   
    21   10   11 ar   
    22   10   76 1    
    23   11   12 ar   
    24   11   48 1    
    25   12   13 ar   
    26   12   77 1    
    27   13   14 ar   
    28   13   15 1    
    29   14   78 1    
    30   15   16 1    
    31   15   79 1    
    32   15   80 1    
    33   16   17 1    
    34   17   18 1    
    35   17   81 1    
    36   17   82 1    
    37   18   19 1    
    38   18   22 1    
    39   18   83 1    
    40   19   20 am   BACKBONE|DICT|INTERRES
    41   19   21 2    
    42   20   84 1    
    43   20   85 1    
    44   22   23 am   BACKBONE|DICT|INTERRES
    45   22   86 1    
    46   23   24 2    
    47   23   25 1    
    48   25   26 1    
    49   25   27 1    
    50   25   87 1    
    51   26   88 1    
    52   26   89 1    
    53   26   90 1    
    54   27   28 am   BACKBONE|DICT|INTERRES
    55   27   91 1    
    56   28   29 2    
    57   28   30 1    
    58   30   31 1    
    59   30   32 1    
    60   30   92 1    
    61   31   93 1    
    62   31   94 1    
    63   31   95 1    
    64   32   33 am   BACKBONE|DICT|INTERRES
    65   32   96 1    
    66   33   34 2    
    67   33   35 1    
    68   35   36 1    
    69   35   37 1    
    70   35   97 1    
    71   36   98 1    
    72   36   99 1    
    73   36  100 1    
    74   37   38 am   BACKBONE|DICT|INTERRES
    75   37  101 1    
    76   38   39 2    
    77   38   40 1    
    78   40   41 1    
    79   40   42 1    
    80   40  102 1    
    81   41  103 1    
    82   41  104 1    
    83   41  105 1    
    84   42   43 am   BACKBONE|DICT|INTERRES
    85   42  106 1    
    86   43   44 2    
    87   43   45 1    
    88   45   46 1    
    89   45   49 1    
    90   45  107 1    
    91   46   47 1    
    92   46  108 1    
    93   46  109 1    
    94   47   48 1    
    95   48  110 1    
    96   48  111 1    
    97   49   50 am   BACKBONE|DICT|INTERRES
    98   49  112 1    
    99   50   51 2    
   100   50   52 1    
   101   52   53 1    
   102   52   54 1    
   103   52  113 1    
   104   53  114 1    
   105   53  115 1    
   106   53  116 1    
   107   54   55 am   BACKBONE|DICT|INTERRES
   108   54  117 1    
   109   55   56 2    
   110   55   57 1    
   111   57   58 1    
   112   57   59 1    
   113   57  118 1    
   114   58  119 1    
   115   58  120 1    
   116   58  121 1    
   117   59   60 am   BACKBONE|DICT|INTERRES
   118   59  122 1    
   119   60   61 2    
   120   60   62 1    
   121   62   63 1    
   122   62   64 1    
   123   62  123 1    
   124   63  124 1    
   125   63  125 1    
   126   63  126 1    
   127   64   65 am   BACKBONE|DICT|INTERRES
   128   64  127 1    
   129   65   66 2    
@<TRIPOS>SUBSTRUCTURE
     1 UNK         1 GROUP             0       ****    0 ROOT    
