@<TRIPOS>MOLECULE
3R135
127   129    1
SMALL
USER_CHARGES


@<TRIPOS>ATOM
      1 CA        -85.9871   25.7124  -71.6072 C.3       0 UNK        -0.1998 
      2 C         -84.7967   26.0029  -72.5088 C.2       0 UNK         0.4909 
      3 O         -84.9789   26.4913  -73.6242 O.2       0 UNK        -0.5240 
      4 N         -83.5786   25.7092  -72.0329 N.am      1 UNK        -0.4739 
      5 CA        -82.3234   25.8966  -72.7724 C.3       1 UNK         0.0864 
      6 C6        -81.1002   25.7963  -71.8244 C.3       11 UNK        -0.0881 
      7 S7        -79.6099   26.6230  -72.4803 S.3       11 UNK        -0.2682 
      8 C8        -79.6497   28.1582  -71.5083 C.3       11 UNK         0.0289 
      9 C9        -78.4296   29.0266  -71.7667 C.ar      11 UNK        -0.0687 
     10 C10       -78.4516   29.9913  -72.7776 C.ar      11 UNK        -0.0823 
     11 C11       -77.3549   30.8365  -72.9725 C.ar      11 UNK        -0.0830 
     12 C12       -76.2333   30.7123  -72.1469 C.ar      11 UNK        -0.1021 
     13 C13       -76.1948   29.7422  -71.1410 C.ar      11 UNK        -0.0753 
     14 C14       -77.2945   28.8975  -70.9610 C.ar      11 UNK        -0.0933 
     15 C15       -74.9876   29.6288  -70.2210 C.3       11 UNK         0.0166 
     16 S16       -73.5463   28.9182  -71.0733 S.3       11 UNK        -0.2615 
     17 C17       -72.5168   30.4097  -71.3189 C.3       11 UNK        -0.0865 
     18 CA        -71.1875   30.1324  -72.0666 C.3       10 UNK         0.0862 
     19 C         -70.1824   29.3176  -71.1963 C.2       10 UNK         0.5551 
     20 N         -69.8191   28.0922  -71.5587 N.am      10 UNK        -0.7319 
     21 O         -69.7147   29.8183  -70.1763 O.2       10 UNK        -0.5018 
     22 N         -71.4411   29.5838  -73.4046 N.am      10 UNK        -0.4509 
     23 C         -70.5525   29.5388  -74.4040 C.2       10 UNK         0.4899 
     24 O         -69.4514   30.0902  -74.3628 O.2       10 UNK        -0.4839 
     25 CA        -70.9646   28.7394  -75.6569 C.3       9 UNK         0.0222 
     26 CB        -69.7523   28.1533  -76.4096 C.3       9 UNK        -0.1966 
     27 N         -71.9581   27.6883  -75.3982 N.am      9 UNK        -0.4218 
     28 C         -71.8520   26.6419  -74.5627 C.2       9 UNK         0.5020 
     29 O         -70.8943   26.4519  -73.8109 O.2       9 UNK        -0.5274 
     30 CA        -73.0163   25.6360  -74.5689 C.3       8 UNK         0.0270 
     31 CB        -74.1568   26.1174  -73.6568 C.3       8 UNK        -0.1976 
     32 N         -73.5371   25.3827  -75.9150 N.am      8 UNK        -0.4313 
     33 C         -72.8464   24.7901  -76.9013 C.2       8 UNK         0.5041 
     34 O         -71.7159   24.3210  -76.7624 O.2       8 UNK        -0.5577 
     35 CA        -73.5160   24.7232  -78.2818 C.3       7 UNK         0.0284 
     36 CB        -74.4727   23.5269  -78.3734 C.3       7 UNK        -0.1958 
     37 N         -74.2365   25.9588  -78.5906 N.am      7 UNK        -0.4454 
     38 C         -73.6568   27.0570  -79.0939 C.2       7 UNK         0.5089 
     39 O         -72.4670   27.1255  -79.4029 O.2       7 UNK        -0.5125 
     40 CA        -74.5524   28.2936  -79.2888 C.3       6 UNK         0.0408 
     41 CB        -75.1461   28.3065  -80.7062 C.3       6 UNK        -0.1791 
     42 N         -75.6365   28.4019  -78.3082 N.am      6 UNK        -0.4762 
     43 C         -75.4574   28.6152  -76.9958 C.2       6 UNK         0.5007 
     44 O         -74.3515   28.6978  -76.4623 O.2       6 UNK        -0.5032 
     45 CA        -76.7330   28.7001  -76.1301 C.3       5 UNK         0.0783 
     46 C46       -77.3984   30.0965  -76.2373 C.3       11 UNK        -0.0857 
     47 S47       -76.3997   31.4388  -75.5046 S.3       11 UNK        -0.2512 
     48 C48       -77.3894   31.9077  -74.0517 C.3       11 UNK         0.0225 
     49 N         -77.6968   27.6359  -76.4443 N.am      5 UNK        -0.4615 
     50 C         -77.4506   26.3186  -76.4215 C.2       4 UNK         0.5053 
     51 O         -76.3464   25.8357  -76.1680 O.2       4 UNK        -0.5105 
     52 CA        -78.6270   25.4120  -76.8187 C.3       4 UNK         0.0263 
     53 CB        -78.4421   24.8424  -78.2392 C.3       4 UNK        -0.1981 
     54 N         -78.9064   24.3620  -75.8326 N.am      4 UNK        -0.4224 
     55 C         -78.1955   23.2623  -75.5273 C.2       3 UNK         0.4895 
     56 O         -77.1599   22.9148  -76.0913 O.2       3 UNK        -0.5091 
     57 CA        -78.7404   22.3633  -74.3992 C.3       3 UNK         0.0250 
     58 CB        -78.0069   22.6647  -73.0814 C.3       3 UNK        -0.1996 
     59 N         -80.1823   22.4961  -74.1823 N.am      3 UNK        -0.4254 
     60 C         -81.1381   22.1370  -75.0524 C.2       2 UNK         0.5004 
     61 O         -80.9186   21.5220  -76.0961 O.2       2 UNK        -0.5226 
     62 CA        -82.5819   22.5634  -74.7174 C.3       2 UNK         0.0269 
     63 CB        -83.3872   21.3687  -74.1810 C.3       2 UNK        -0.1926 
     64 N         -82.6744   23.6733  -73.7585 N.am      2 UNK        -0.4687 
     65 C         -82.1893   24.9108  -73.9514 C.2       1 UNK         0.5165 
     66 O         -81.6249   25.2661  -74.9867 O.2       1 UNK        -0.5079 
     67 H67       -85.6814   25.2911  -70.6498 H         1 UNK         0.0900 
     68 H68       -86.6591   25.0037  -72.0903 H         1 UNK         0.0900 
     69 H69       -86.5422   26.6295  -71.4118 H         1 UNK         0.0900 
     70 H70       -83.4933   25.3199  -71.1043 H         1 UNK         0.2959 
     71 H71       -82.3496   26.9031  -73.1971 H         1 UNK         0.1079 
     72 H72       -81.3420   26.2451  -70.8597 H         1 UNK         0.0837 
     73 H73       -80.8543   24.7570  -71.5979 H         1 UNK         0.0837 
     74 H74       -79.7056   27.9148  -70.4460 H         1 UNK         0.0685 
     75 H75       -80.5606   28.7105  -71.7450 H         1 UNK         0.0685 
     76 H76       -79.3302   30.0929  -73.3999 H         1 UNK         0.1434 
     77 H77       -75.3911   31.3746  -72.2887 H         1 UNK         0.1329 
     78 H78       -77.2780   28.1518  -70.1778 H         1 UNK         0.1335 
     79 H79       -74.7452   30.6107  -69.8120 H         1 UNK         0.0680 
     80 H80       -75.2222   28.9971  -69.3629 H         1 UNK         0.0680 
     81 H81       -73.0958   31.1456  -71.8776 H         1 UNK         0.1032 
     82 H82       -72.3175   30.8681  -70.3482 H         1 UNK         0.1032 
     83 H83       -70.7103   31.1025  -72.2188 H         1 UNK         0.0461 
     84 H84       -69.1648   27.5833  -70.9866 H         1 UNK         0.3453 
     85 H85       -70.2094   27.6549  -72.3876 H         1 UNK         0.3453 
     86 H86       -72.3143   29.0899  -73.5156 H         1 UNK         0.2984 
     87 H87       -71.4530   29.4531  -76.3218 H         1 UNK         0.0554 
     88 H88       -70.0663   27.6119  -77.3025 H         1 UNK         0.0847 
     89 H89       -69.1834   27.4654  -75.7832 H         1 UNK         0.0847 
     90 H90       -69.0703   28.9404  -76.7333 H         1 UNK         0.0847 
     91 H91       -72.8378   27.8095  -75.8981 H         1 UNK         0.3141 
     92 H92       -72.6403   24.6897  -74.1747 H         1 UNK         0.0743 
     93 H93       -74.5738   27.0672  -73.9939 H         1 UNK         0.0784 
     94 H94       -74.9699   25.3917  -73.6209 H         1 UNK         0.0784 
     95 H95       -73.8040   26.2593  -72.6346 H         1 UNK         0.0784 
     96 H96       -74.5005   25.6640  -76.0908 H         1 UNK         0.3213 
     97 H97       -72.7297   24.5754  -79.0259 H         1 UNK         0.0855 
     98 H98       -75.2807   23.6094  -77.6488 H         1 UNK         0.0814 
     99 H99       -73.9491   22.5917  -78.1716 H         1 UNK         0.0814 
    100 H100      -74.9165   23.4450  -79.3656 H         1 UNK         0.0814 
    101 H101      -75.2084   26.0055  -78.3193 H         1 UNK         0.3105 
    102 H102      -73.9180   29.1759  -79.1792 H         1 UNK         0.0547 
    103 H103      -75.8136   27.4604  -80.8740 H         1 UNK         0.0837 
    104 H104      -75.7076   29.2217  -80.8943 H         1 UNK         0.0837 
    105 H105      -74.3582   28.2529  -81.4590 H         1 UNK         0.0837 
    106 H106      -76.5806   28.3305  -78.6595 H         1 UNK         0.3020 
    107 H107      -76.4278   28.5465  -75.0920 H         1 UNK         0.1245 
    108 H108      -78.3723   30.0812  -75.7468 H         1 UNK         0.0781 
    109 H109      -77.6030   30.3508  -77.2791 H         1 UNK         0.0781 
    110 H110      -76.9951   32.8405  -73.6456 H         1 UNK         0.0836 
    111 H111      -78.4142   32.1232  -74.3587 H         1 UNK         0.0836 
    112 H112      -78.6288   27.9438  -76.6806 H         1 UNK         0.3022 
    113 H113      -79.5304   26.0240  -76.8341 H         1 UNK         0.0747 
    114 H114      -78.3664   25.6451  -78.9735 H         1 UNK         0.0793 
    115 H115      -79.2876   24.2176  -78.5272 H         1 UNK         0.0793 
    116 H116      -77.5377   24.2409  -78.3264 H         1 UNK         0.0793 
    117 H117      -79.7548   24.5255  -75.3006 H         1 UNK         0.3047 
    118 H118      -78.5376   21.3273  -74.6790 H         1 UNK         0.0822 
    119 H119      -76.9287   22.5470  -73.2005 H         1 UNK         0.0807 
    120 H120      -78.3193   21.9868  -72.2869 H         1 UNK         0.0807 
    121 H121      -78.1858   23.6867  -72.7441 H         1 UNK         0.0807 
    122 H122      -80.4703   22.9712  -73.3404 H         1 UNK         0.2946 
    123 H123      -83.0383   22.8960  -75.6525 H         1 UNK         0.1144 
    124 H124      -82.9885   21.0056  -73.2330 H         1 UNK         0.0793 
    125 H125      -83.3648   20.5350  -74.8845 H         1 UNK         0.0793 
    126 H126      -84.4342   21.6315  -74.0282 H         1 UNK         0.0793 
    127 H127      -83.1354   23.4767  -72.8816 H         1 UNK         0.2896 
@<TRIPOS>BOND
     1    1    2 1    
     2    1   67 1    
     3    1   68 1    
     4    1   69 1    
     5    2    3 2    
     6    2    4 am   BACKBONE|DICT|INTERRES
     7    4    5 1    
     8    4   70 1    
     9    5    6 1    
    10    5   65 1    
    11    5   71 1    
    12    6    7 1    
    13    6   72 1    
    14    6   73 1    
    15    7    8 1    
    16    8    9 1    
    17    8   74 1    
    18    8   75 1    
    19    9   10 ar   
    20    9   14 ar   
    21   10   11 ar   
    22   10   76 1    
    23   11   12 ar   
    24   11   48 1    
    25   12   13 ar   
    26   12   77 1    
    27   13   14 ar   
    28   13   15 1    
    29   14   78 1    
    30   15   16 1    
    31   15   79 1    
    32   15   80 1    
    33   16   17 1    
    34   17   18 1    
    35   17   81 1    
    36   17   82 1    
    37   18   19 1    
    38   18   22 1    
    39   18   83 1    
    40   19   20 am   BACKBONE|DICT|INTERRES
    41   19   21 2    
    42   20   84 1    
    43   20   85 1    
    44   22   23 am   BACKBONE|DICT|INTERRES
    45   22   86 1    
    46   23   24 2    
    47   23   25 1    
    48   25   26 1    
    49   25   27 1    
    50   25   87 1    
    51   26   88 1    
    52   26   89 1    
    53   26   90 1    
    54   27   28 am   BACKBONE|DICT|INTERRES
    55   27   91 1    
    56   28   29 2    
    57   28   30 1    
    58   30   31 1    
    59   30   32 1    
    60   30   92 1    
    61   31   93 1    
    62   31   94 1    
    63   31   95 1    
    64   32   33 am   BACKBONE|DICT|INTERRES
    65   32   96 1    
    66   33   34 2    
    67   33   35 1    
    68   35   36 1    
    69   35   37 1    
    70   35   97 1    
    71   36   98 1    
    72   36   99 1    
    73   36  100 1    
    74   37   38 am   BACKBONE|DICT|INTERRES
    75   37  101 1    
    76   38   39 2    
    77   38   40 1    
    78   40   41 1    
    79   40   42 1    
    80   40  102 1    
    81   41  103 1    
    82   41  104 1    
    83   41  105 1    
    84   42   43 am   BACKBONE|DICT|INTERRES
    85   42  106 1    
    86   43   44 2    
    87   43   45 1    
    88   45   46 1    
    89   45   49 1    
    90   45  107 1    
    91   46   47 1    
    92   46  108 1    
    93   46  109 1    
    94   47   48 1    
    95   48  110 1    
    96   48  111 1    
    97   49   50 am   BACKBONE|DICT|INTERRES
    98   49  112 1    
    99   50   51 2    
   100   50   52 1    
   101   52   53 1    
   102   52   54 1    
   103   52  113 1    
   104   53  114 1    
   105   53  115 1    
   106   53  116 1    
   107   54   55 am   BACKBONE|DICT|INTERRES
   108   54  117 1    
   109   55   56 2    
   110   55   57 1    
   111   57   58 1    
   112   57   59 1    
   113   57  118 1    
   114   58  119 1    
   115   58  120 1    
   116   58  121 1    
   117   59   60 am   BACKBONE|DICT|INTERRES
   118   59  122 1    
   119   60   61 2    
   120   60   62 1    
   121   62   63 1    
   122   62   64 1    
   123   62  123 1    
   124   63  124 1    
   125   63  125 1    
   126   63  126 1    
   127   64   65 am   BACKBONE|DICT|INTERRES
   128   64  127 1    
   129   65   66 2    
@<TRIPOS>SUBSTRUCTURE
     1 UNK         1 GROUP             0       ****    0 ROOT    
