@<TRIPOS>MOLECULE
3R135
127   129    1
SMALL
USER_CHARGES


@<TRIPOS>ATOM
      1 CA        -83.7650   27.2794  -75.7002 C.3       0 UNK        -0.1998 
      2 C         -82.3913   27.9065  -75.5195 C.2       0 UNK         0.4909 
      3 O         -81.6868   28.1355  -76.5026 O.2       0 UNK        -0.5240 
      4 N         -82.0020   28.1909  -74.2710 N.am      1 UNK        -0.4739 
      5 CA        -80.6857   28.7294  -73.9138 C.3       1 UNK         0.0864 
      6 C6        -80.6875   29.3507  -72.4942 C.3       11 UNK        -0.0881 
      7 S7        -81.1598   28.1913  -71.1604 S.3       11 UNK        -0.2682 
      8 C8        -79.9346   28.5794  -69.8684 C.3       11 UNK         0.0289 
      9 C9        -78.5108   28.2643  -70.3047 C.ar      11 UNK        -0.0687 
     10 C10       -78.1089   26.9387  -70.4852 C.ar      11 UNK        -0.0823 
     11 C11       -76.8065   26.6357  -70.8985 C.ar      11 UNK        -0.0830 
     12 C12       -75.9000   27.6807  -71.1113 C.ar      11 UNK        -0.1021 
     13 C13       -76.2836   29.0123  -70.9163 C.ar      11 UNK        -0.0753 
     14 C14       -77.5912   29.2957  -70.5133 C.ar      11 UNK        -0.0933 
     15 C15       -75.2825   30.1463  -71.0971 C.3       11 UNK         0.0166 
     16 S16       -75.6950   31.2032  -72.5205 S.3       11 UNK        -0.2615 
     17 C17       -74.3479   32.4372  -72.4460 C.3       11 UNK        -0.0865 
     18 CA        -73.4119   32.3928  -73.6901 C.3       10 UNK         0.0862 
     19 C         -72.4181   33.5939  -73.7430 C.2       10 UNK         0.5551 
     20 N         -71.2214   33.4350  -74.2954 N.am      10 UNK        -0.7319 
     21 O         -72.7442   34.6960  -73.3082 O.2       10 UNK        -0.5018 
     22 N         -72.7974   31.0700  -73.9010 N.am      10 UNK        -0.4509 
     23 C         -71.9288   30.4431  -73.1031 C.2       10 UNK         0.4899 
     24 O         -71.4753   30.9358  -72.0701 O.2       10 UNK        -0.4839 
     25 CA        -71.4972   29.0120  -73.4871 C.3       9 UNK         0.0222 
     26 CB        -72.4620   27.9850  -72.8696 C.3       9 UNK        -0.1966 
     27 N         -71.2802   28.7022  -74.9119 N.am      9 UNK        -0.4218 
     28 C         -72.1063   28.8023  -75.9660 C.2       9 UNK         0.5020 
     29 O         -73.1948   29.3738  -75.9558 O.2       9 UNK        -0.5274 
     30 CA        -71.6597   28.0668  -77.2394 C.3       8 UNK         0.0270 
     31 CB        -70.2040   28.3820  -77.6327 C.3       8 UNK        -0.1976 
     32 N         -71.8284   26.6260  -77.0365 N.am      8 UNK        -0.4313 
     33 C         -73.0079   25.9927  -77.0904 C.2       8 UNK         0.5041 
     34 O         -74.0431   26.5027  -77.5233 O.2       8 UNK        -0.5577 
     35 CA        -73.0290   24.5636  -76.5318 C.3       7 UNK         0.0284 
     36 CB        -72.9162   24.5855  -74.9968 C.3       7 UNK        -0.1958 
     37 N         -74.2836   23.9033  -76.8835 N.am      7 UNK        -0.4454 
     38 C         -74.3961   22.7121  -77.4820 C.2       7 UNK         0.5089 
     39 O         -73.4343   22.0268  -77.8353 O.2       7 UNK        -0.5125 
     40 CA        -75.8338   22.2001  -77.6977 C.3       6 UNK         0.0408 
     41 CB        -75.9002   20.7321  -78.1684 C.3       6 UNK        -0.1791 
     42 N         -76.6697   22.4195  -76.5133 N.am      6 UNK        -0.4762 
     43 C         -76.5196   21.9018  -75.2828 C.2       6 UNK         0.5007 
     44 O         -75.6950   21.0336  -74.9951 O.2       6 UNK        -0.5032 
     45 CA        -77.4262   22.4743  -74.1704 C.3       5 UNK         0.0783 
     46 C46       -76.5949   23.3961  -73.2406 C.3       11 UNK        -0.0857 
     47 S47       -77.5885   24.1342  -71.9047 S.3       11 UNK        -0.2512 
     48 C48       -76.3525   25.1875  -71.0692 C.3       11 UNK         0.0225 
     49 N         -78.6022   23.1603  -74.7203 N.am      5 UNK        -0.4615 
     50 C         -79.6793   22.5525  -75.2350 C.2       4 UNK         0.5053 
     51 O         -79.8470   21.3331  -75.2246 O.2       4 UNK        -0.5105 
     52 CA        -80.7303   23.4553  -75.9043 C.3       4 UNK         0.0263 
     53 CB        -81.8233   23.8550  -74.9004 C.3       4 UNK        -0.1981 
     54 N         -80.1248   24.6546  -76.4942 N.am      4 UNK        -0.4224 
     55 C         -79.4190   24.6466  -77.6376 C.2       3 UNK         0.4895 
     56 O         -79.3028   23.6547  -78.3568 O.2       3 UNK        -0.5091 
     57 CA        -78.6730   25.9344  -78.0331 C.3       3 UNK         0.0250 
     58 CB        -79.5103   26.7726  -79.0111 C.3       3 UNK        -0.1996 
     59 N         -78.2868   26.7513  -76.8807 N.am      3 UNK        -0.4254 
     60 C         -77.3738   26.3820  -75.9696 C.2       2 UNK         0.5004 
     61 O         -76.7120   25.3484  -76.0586 O.2       2 UNK        -0.5226 
     62 CA        -77.2026   27.2734  -74.7255 C.3       2 UNK         0.0269 
     63 CB        -75.9420   28.1332  -74.8603 C.3       2 UNK        -0.1926 
     64 N         -78.3550   28.1344  -74.4304 N.am      2 UNK        -0.4687 
     65 C         -79.5750   27.6744  -74.1192 C.2       1 UNK         0.5165 
     66 O         -79.8391   26.4711  -74.0462 O.2       1 UNK        -0.5079 
     67 H67       -84.1726   26.9179  -74.7563 H         1 UNK         0.0900 
     68 H68       -83.7070   26.4369  -76.3886 H         1 UNK         0.0900 
     69 H69       -84.4579   28.0103  -76.1158 H         1 UNK         0.0900 
     70 H70       -82.5934   27.9476  -73.4889 H         1 UNK         0.2959 
     71 H71       -80.4786   29.5414  -74.6150 H         1 UNK         0.1079 
     72 H72       -79.7146   29.7955  -72.2833 H         1 UNK         0.0837 
     73 H73       -81.3917   30.1836  -72.4673 H         1 UNK         0.0837 
     74 H74       -80.0338   29.6291  -69.5876 H         1 UNK         0.0685 
     75 H75       -80.1704   28.0004  -68.9746 H         1 UNK         0.0685 
     76 H76       -78.8197   26.1430  -70.3093 H         1 UNK         0.1434 
     77 H77       -74.8872   27.4545  -71.4105 H         1 UNK         0.1329 
     78 H78       -77.8894   30.3243  -70.3623 H         1 UNK         0.1335 
     79 H79       -75.2660   30.7543  -70.1915 H         1 UNK         0.0680 
     80 H80       -74.2735   29.7542  -71.2238 H         1 UNK         0.0680 
     81 H81       -73.7698   32.3120  -71.5292 H         1 UNK         0.1032 
     82 H82       -74.8227   33.4164  -72.3636 H         1 UNK         0.1032 
     83 H83       -74.0475   32.5410  -74.5636 H         1 UNK         0.0461 
     84 H84       -70.5862   34.2163  -74.3373 H         1 UNK         0.3453 
     85 H85       -70.9482   32.5377  -74.6622 H         1 UNK         0.3453 
     86 H86       -73.1059   30.5608  -74.7299 H         1 UNK         0.2984 
     87 H87       -70.5245   28.8587  -73.0170 H         1 UNK         0.0554 
     88 H88       -72.1160   26.9649  -73.0312 H         1 UNK         0.0847 
     89 H89       -73.4615   28.0721  -73.2926 H         1 UNK         0.0847 
     90 H90       -72.5447   28.1274  -71.7917 H         1 UNK         0.0847 
     91 H91       -70.3907   28.2602  -75.0951 H         1 UNK         0.3141 
     92 H92       -72.3054   28.3936  -78.0577 H         1 UNK         0.0743 
     93 H93       -69.9613   27.9470  -78.6025 H         1 UNK         0.0784 
     94 H94       -70.0473   29.4583  -77.7171 H         1 UNK         0.0784 
     95 H95       -69.4806   27.9994  -76.9123 H         1 UNK         0.0784 
     96 H96       -71.0294   26.1225  -76.6794 H         1 UNK         0.3213 
     97 H97       -72.1785   24.0231  -76.9509 H         1 UNK         0.0855 
     98 H98       -71.9703   25.0195  -74.6725 H         1 UNK         0.0814 
     99 H99       -72.9657   23.5783  -74.5843 H         1 UNK         0.0814 
    100 H100      -73.7174   25.1697  -74.5437 H         1 UNK         0.0814 
    101 H101      -75.1267   24.4388  -76.6812 H         1 UNK         0.3105 
    102 H102      -76.2629   22.8181  -78.4880 H         1 UNK         0.0547 
    103 H103      -75.3852   20.6063  -79.1214 H         1 UNK         0.0837 
    104 H104      -75.4309   20.0532  -77.4561 H         1 UNK         0.0837 
    105 H105      -76.9310   20.4088  -78.3123 H         1 UNK         0.0837 
    106 H106      -77.3461   23.1662  -76.6030 H         1 UNK         0.3020 
    107 H107      -77.7769   21.6247  -73.5799 H         1 UNK         0.1245 
    108 H108      -76.1271   24.2019  -73.8076 H         1 UNK         0.0781 
    109 H109      -75.7792   22.8335  -72.7820 H         1 UNK         0.0781 
    110 H110      -75.4104   25.1516  -71.6179 H         1 UNK         0.0836 
    111 H111      -76.1467   24.7679  -70.0840 H         1 UNK         0.0836 
    112 H112      -78.5610   24.1695  -74.7313 H         1 UNK         0.3022 
    113 H113      -81.2032   22.8786  -76.7023 H         1 UNK         0.0747 
    114 H114      -82.5865   24.4743  -75.3697 H         1 UNK         0.0793 
    115 H115      -82.3244   22.9718  -74.5023 H         1 UNK         0.0793 
    116 H116      -81.4173   24.4047  -74.0511 H         1 UNK         0.0793 
    117 H117      -80.1461   25.4969  -75.9299 H         1 UNK         0.3047 
    118 H118      -77.7563   25.6345  -78.5461 H         1 UNK         0.0822 
    119 H119      -78.9710   27.6625  -79.3357 H         1 UNK         0.0807 
    120 H120      -80.4530   27.0926  -78.5677 H         1 UNK         0.0807 
    121 H121      -79.7525   26.1974  -79.9058 H         1 UNK         0.0807 
    122 H122      -78.8004   27.6084  -76.7325 H         1 UNK         0.2946 
    123 H123      -77.0685   26.6037  -73.8733 H         1 UNK         0.1144 
    124 H124      -75.7307   28.6734  -73.9399 H         1 UNK         0.0793 
    125 H125      -76.0280   28.8606  -75.6681 H         1 UNK         0.0793 
    126 H126      -75.0711   27.5131  -75.0764 H         1 UNK         0.0793 
    127 H127      -78.1939   29.1309  -74.4681 H         1 UNK         0.2896 
@<TRIPOS>BOND
     1    1    2 1    
     2    1   67 1    
     3    1   68 1    
     4    1   69 1    
     5    2    3 2    
     6    2    4 am   BACKBONE|DICT|INTERRES
     7    4    5 1    
     8    4   70 1    
     9    5    6 1    
    10    5   65 1    
    11    5   71 1    
    12    6    7 1    
    13    6   72 1    
    14    6   73 1    
    15    7    8 1    
    16    8    9 1    
    17    8   74 1    
    18    8   75 1    
    19    9   10 ar   
    20    9   14 ar   
    21   10   11 ar   
    22   10   76 1    
    23   11   12 ar   
    24   11   48 1    
    25   12   13 ar   
    26   12   77 1    
    27   13   14 ar   
    28   13   15 1    
    29   14   78 1    
    30   15   16 1    
    31   15   79 1    
    32   15   80 1    
    33   16   17 1    
    34   17   18 1    
    35   17   81 1    
    36   17   82 1    
    37   18   19 1    
    38   18   22 1    
    39   18   83 1    
    40   19   20 am   BACKBONE|DICT|INTERRES
    41   19   21 2    
    42   20   84 1    
    43   20   85 1    
    44   22   23 am   BACKBONE|DICT|INTERRES
    45   22   86 1    
    46   23   24 2    
    47   23   25 1    
    48   25   26 1    
    49   25   27 1    
    50   25   87 1    
    51   26   88 1    
    52   26   89 1    
    53   26   90 1    
    54   27   28 am   BACKBONE|DICT|INTERRES
    55   27   91 1    
    56   28   29 2    
    57   28   30 1    
    58   30   31 1    
    59   30   32 1    
    60   30   92 1    
    61   31   93 1    
    62   31   94 1    
    63   31   95 1    
    64   32   33 am   BACKBONE|DICT|INTERRES
    65   32   96 1    
    66   33   34 2    
    67   33   35 1    
    68   35   36 1    
    69   35   37 1    
    70   35   97 1    
    71   36   98 1    
    72   36   99 1    
    73   36  100 1    
    74   37   38 am   BACKBONE|DICT|INTERRES
    75   37  101 1    
    76   38   39 2    
    77   38   40 1    
    78   40   41 1    
    79   40   42 1    
    80   40  102 1    
    81   41  103 1    
    82   41  104 1    
    83   41  105 1    
    84   42   43 am   BACKBONE|DICT|INTERRES
    85   42  106 1    
    86   43   44 2    
    87   43   45 1    
    88   45   46 1    
    89   45   49 1    
    90   45  107 1    
    91   46   47 1    
    92   46  108 1    
    93   46  109 1    
    94   47   48 1    
    95   48  110 1    
    96   48  111 1    
    97   49   50 am   BACKBONE|DICT|INTERRES
    98   49  112 1    
    99   50   51 2    
   100   50   52 1    
   101   52   53 1    
   102   52   54 1    
   103   52  113 1    
   104   53  114 1    
   105   53  115 1    
   106   53  116 1    
   107   54   55 am   BACKBONE|DICT|INTERRES
   108   54  117 1    
   109   55   56 2    
   110   55   57 1    
   111   57   58 1    
   112   57   59 1    
   113   57  118 1    
   114   58  119 1    
   115   58  120 1    
   116   58  121 1    
   117   59   60 am   BACKBONE|DICT|INTERRES
   118   59  122 1    
   119   60   61 2    
   120   60   62 1    
   121   62   63 1    
   122   62   64 1    
   123   62  123 1    
   124   63  124 1    
   125   63  125 1    
   126   63  126 1    
   127   64   65 am   BACKBONE|DICT|INTERRES
   128   64  127 1    
   129   65   66 2    
@<TRIPOS>SUBSTRUCTURE
     1 UNK         1 GROUP             0       ****    0 ROOT    
