@<TRIPOS>MOLECULE
3R135
127   129    1
SMALL
USER_CHARGES


@<TRIPOS>ATOM
      1 CA        -78.0708   31.3663  -75.5654 C.3       0 UNK        -0.1998 
      2 C         -78.5777   30.0645  -74.9633 C.2       0 UNK         0.4909 
      3 O         -77.8679   29.0630  -74.9879 O.2       0 UNK        -0.5240 
      4 N         -79.8009   30.0666  -74.4212 N.am      1 UNK        -0.4739 
      5 CA        -80.4601   28.8761  -73.8773 C.3       1 UNK         0.0864 
      6 C6        -81.6705   29.2770  -72.9976 C.3       11 UNK        -0.0881 
      7 S7        -82.1307   27.9773  -71.8041 S.3       11 UNK        -0.2682 
      8 C8        -81.4385   28.6399  -70.2551 C.3       11 UNK         0.0289 
      9 C9        -79.9182   28.5770  -70.2407 C.ar      11 UNK        -0.0687 
     10 C10       -79.2766   27.3551  -70.0178 C.ar      11 UNK        -0.0823 
     11 C11       -77.8817   27.2818  -70.0022 C.ar      11 UNK        -0.0830 
     12 C12       -77.1304   28.4469  -70.1648 C.ar      11 UNK        -0.1021 
     13 C13       -77.7546   29.6692  -70.4232 C.ar      11 UNK        -0.0753 
     14 C14       -79.1525   29.7295  -70.4546 C.ar      11 UNK        -0.0933 
     15 C15       -76.9156   30.9167  -70.6730 C.3       11 UNK         0.0166 
     16 S16       -76.1138   30.8884  -72.3134 S.3       11 UNK        -0.2615 
     17 C17       -74.6827   29.7909  -72.0255 C.3       11 UNK        -0.0865 
     18 CA        -73.4570   30.1696  -72.8937 C.3       10 UNK         0.0862 
     19 C         -72.1607   29.5403  -72.3182 C.2       10 UNK         0.5551 
     20 N         -71.2862   30.3421  -71.7267 N.am      10 UNK        -0.7319 
     21 O         -71.9692   28.3273  -72.3613 O.2       10 UNK        -0.5018 
     22 N         -73.6410   29.7623  -74.2920 N.am      10 UNK        -0.4509 
     23 C         -72.9450   30.2641  -75.3187 C.2       10 UNK         0.4899 
     24 O         -72.1912   31.2355  -75.2311 O.2       10 UNK        -0.4839 
     25 CA        -73.1102   29.5261  -76.6581 C.3       9 UNK         0.0222 
     26 CB        -72.3449   30.1852  -77.8249 C.3       9 UNK        -0.1966 
     27 N         -72.7633   28.1075  -76.5281 N.am      9 UNK        -0.4218 
     28 C         -71.5797   27.5627  -76.2058 C.2       9 UNK         0.5020 
     29 O         -70.5417   28.2042  -76.0378 O.2       9 UNK        -0.5274 
     30 CA        -71.5418   26.0304  -76.0375 C.3       8 UNK         0.0270 
     31 CB        -71.6335   25.6557  -74.5497 C.3       8 UNK        -0.1976 
     32 N         -72.6046   25.3372  -76.7721 N.am      8 UNK        -0.4313 
     33 C         -72.6482   25.2072  -78.1062 C.2       8 UNK         0.5041 
     34 O         -71.7427   25.5652  -78.8603 O.2       8 UNK        -0.5577 
     35 CA        -73.9385   24.6163  -78.7028 C.3       7 UNK         0.0284 
     36 CB        -73.9300   23.0819  -78.6213 C.3       7 UNK        -0.1958 
     37 N         -75.1432   25.1458  -78.0563 N.am      7 UNK        -0.4454 
     38 C         -75.5272   26.4301  -78.1060 C.2       7 UNK         0.5089 
     39 O         -74.9589   27.2902  -78.7775 O.2       7 UNK        -0.5125 
     40 CA        -76.7132   26.8411  -77.2234 C.3       6 UNK         0.0408 
     41 CB        -78.0466   26.6512  -77.9607 C.3       6 UNK        -0.1791 
     42 N         -76.7349   26.1152  -75.9530 N.am      6 UNK        -0.4762 
     43 C         -75.9093   26.3569  -74.9230 C.2       6 UNK         0.5007 
     44 O         -75.0443   27.2332  -74.9216 O.2       6 UNK        -0.5032 
     45 CA        -76.0465   25.4250  -73.7038 C.3       5 UNK         0.0783 
     46 C46       -77.1402   25.9583  -72.7499 C.3       11 UNK        -0.0857 
     47 S47       -77.4703   24.8650  -71.3183 S.3       11 UNK        -0.2512 
     48 C48       -77.1743   25.9405  -69.8730 C.3       11 UNK         0.0225 
     49 N         -76.2817   24.0400  -74.1213 N.am      5 UNK        -0.4615 
     50 C         -75.3787   23.2828  -74.7584 C.2       4 UNK         0.5053 
     51 O         -74.2481   23.6719  -75.0497 O.2       4 UNK        -0.5105 
     52 CA        -75.8169   21.8707  -75.1822 C.3       4 UNK         0.0263 
     53 CB        -75.5067   20.8585  -74.0685 C.3       4 UNK        -0.1981 
     54 N         -77.2329   21.7759  -75.5470 N.am      4 UNK        -0.4224 
     55 C         -77.8274   22.4672  -76.5298 C.2       3 UNK         0.4895 
     56 O         -77.2340   23.2686  -77.2539 O.2       3 UNK        -0.5091 
     57 CA        -79.3407   22.2528  -76.7341 C.3       3 UNK         0.0250 
     58 CB        -79.9663   21.1989  -75.7906 C.3       3 UNK        -0.1996 
     59 N         -80.0979   23.5086  -76.6541 N.am      3 UNK        -0.4254 
     60 C         -80.0998   24.3852  -75.6389 C.2       2 UNK         0.5004 
     61 O         -79.4026   24.2783  -74.6266 O.2       2 UNK        -0.5226 
     62 CA        -81.0658   25.5680  -75.7742 C.3       2 UNK         0.0269 
     63 CB        -82.5173   25.1269  -75.5102 C.3       2 UNK        -0.1926 
     64 N         -80.7008   26.6145  -74.8214 N.am      2 UNK        -0.4687 
     65 C         -80.8787   27.9248  -75.0202 C.2       1 UNK         0.5165 
     66 O         -81.3805   28.3944  -76.0456 O.2       1 UNK        -0.5079 
     67 H67       -77.9647   31.2620  -76.6447 H         1 UNK         0.0900 
     68 H68       -78.7460   32.1979  -75.3657 H         1 UNK         0.0900 
     69 H69       -77.0945   31.6154  -75.1506 H         1 UNK         0.0900 
     70 H70       -80.3616   30.9053  -74.4591 H         1 UNK         0.2959 
     71 H71       -79.7258   28.3646  -73.2492 H         1 UNK         0.1079 
     72 H72       -81.4451   30.1870  -72.4397 H         1 UNK         0.0837 
     73 H73       -82.5417   29.5224  -73.6085 H         1 UNK         0.0837 
     74 H74       -81.8295   28.0568  -69.4199 H         1 UNK         0.0685 
     75 H75       -81.7893   29.6614  -70.1004 H         1 UNK         0.0685 
     76 H76       -79.8628   26.4553  -69.8880 H         1 UNK         0.1434 
     77 H77       -76.0529   28.3901  -70.1317 H         1 UNK         0.1329 
     78 H78       -79.6446   30.6728  -70.6472 H         1 UNK         0.1335 
     79 H79       -77.5437   31.8069  -70.6160 H         1 UNK         0.0680 
     80 H80       -76.1661   31.0275  -69.8882 H         1 UNK         0.0680 
     81 H81       -74.9789   28.7571  -72.2127 H         1 UNK         0.1032 
     82 H82       -74.4208   29.8513  -70.9675 H         1 UNK         0.1032 
     83 H83       -73.3494   31.2563  -72.8651 H         1 UNK         0.0461 
     84 H84       -71.4389   31.3378  -71.6831 H         1 UNK         0.3453 
     85 H85       -70.4473   29.9461  -71.3324 H         1 UNK         0.3453 
     86 H86       -74.2047   28.9309  -74.4491 H         1 UNK         0.2984 
     87 H87       -74.1733   29.5581  -76.9026 H         1 UNK         0.0554 
     88 H88       -72.6797   31.2118  -77.9776 H         1 UNK         0.0847 
     89 H89       -72.5106   29.6470  -78.7582 H         1 UNK         0.0847 
     90 H90       -71.2704   30.2190  -77.6429 H         1 UNK         0.0847 
     91 H91       -73.5536   27.4772  -76.5689 H         1 UNK         0.3141 
     92 H92       -70.5803   25.6806  -76.4192 H         1 UNK         0.0743 
     93 H93       -70.8345   26.1294  -73.9774 H         1 UNK         0.0784 
     94 H94       -72.5793   25.9777  -74.1117 H         1 UNK         0.0784 
     95 H95       -71.5451   24.5791  -74.4034 H         1 UNK         0.0784 
     96 H96       -73.3497   24.9251  -76.2151 H         1 UNK         0.3213 
     97 H97       -73.9789   24.8999  -79.7568 H         1 UNK         0.0855 
     98 H98       -73.8289   22.7317  -77.5947 H         1 UNK         0.0814 
     99 H99       -73.0936   22.6694  -79.1869 H         1 UNK         0.0814 
    100 H100      -74.8443   22.6550  -79.0343 H         1 UNK         0.0814 
    101 H101      -75.7274   24.4885  -77.5466 H         1 UNK         0.3105 
    102 H102      -76.6008   27.9054  -77.0077 H         1 UNK         0.0547 
    103 H103      -78.2576   25.6008  -78.1619 H         1 UNK         0.0837 
    104 H104      -78.0384   27.1718  -78.9192 H         1 UNK         0.0837 
    105 H105      -78.8725   27.0622  -77.3809 H         1 UNK         0.0837 
    106 H106      -77.3811   25.3413  -75.8757 H         1 UNK         0.3020 
    107 H107      -75.0932   25.4499  -73.1705 H         1 UNK         0.1245 
    108 H108      -78.0838   26.0952  -73.2791 H         1 UNK         0.0781 
    109 H109      -76.8533   26.9525  -72.4094 H         1 UNK         0.0781 
    110 H110      -76.0985   26.0766  -69.7521 H         1 UNK         0.0836 
    111 H111      -77.5220   25.4323  -68.9726 H         1 UNK         0.0836 
    112 H112      -77.2098   23.6749  -73.9489 H         1 UNK         0.3022 
    113 H113      -75.2348   21.5953  -76.0631 H         1 UNK         0.0747 
    114 H114      -75.7251   19.8386  -74.3854 H         1 UNK         0.0793 
    115 H115      -74.4509   20.8916  -73.7955 H         1 UNK         0.0793 
    116 H116      -76.0832   21.0621  -73.1650 H         1 UNK         0.0793 
    117 H117      -77.8032   21.1544  -74.9923 H         1 UNK         0.3047 
    118 H118      -79.4528   21.8883  -77.7564 H         1 UNK         0.0822 
    119 H119      -81.0217   21.0510  -76.0204 H         1 UNK         0.0807 
    120 H120      -79.9010   21.4929  -74.7421 H         1 UNK         0.0807 
    121 H121      -79.4832   20.2269  -75.9005 H         1 UNK         0.0807 
    122 H122      -80.6849   23.7044  -77.4531 H         1 UNK         0.2946 
    123 H123      -80.9840   25.9533  -76.7931 H         1 UNK         0.1144 
    124 H124      -83.2120   25.9589  -75.6278 H         1 UNK         0.0793 
    125 H125      -82.6384   24.7318  -74.5007 H         1 UNK         0.0793 
    126 H126      -82.8289   24.3473  -76.2064 H         1 UNK         0.0793 
    127 H127      -80.2487   26.2784  -73.9805 H         1 UNK         0.2896 
@<TRIPOS>BOND
     1    1    2 1    
     2    1   67 1    
     3    1   68 1    
     4    1   69 1    
     5    2    3 2    
     6    2    4 am   BACKBONE|DICT|INTERRES
     7    4    5 1    
     8    4   70 1    
     9    5    6 1    
    10    5   65 1    
    11    5   71 1    
    12    6    7 1    
    13    6   72 1    
    14    6   73 1    
    15    7    8 1    
    16    8    9 1    
    17    8   74 1    
    18    8   75 1    
    19    9   10 ar   
    20    9   14 ar   
    21   10   11 ar   
    22   10   76 1    
    23   11   12 ar   
    24   11   48 1    
    25   12   13 ar   
    26   12   77 1    
    27   13   14 ar   
    28   13   15 1    
    29   14   78 1    
    30   15   16 1    
    31   15   79 1    
    32   15   80 1    
    33   16   17 1    
    34   17   18 1    
    35   17   81 1    
    36   17   82 1    
    37   18   19 1    
    38   18   22 1    
    39   18   83 1    
    40   19   20 am   BACKBONE|DICT|INTERRES
    41   19   21 2    
    42   20   84 1    
    43   20   85 1    
    44   22   23 am   BACKBONE|DICT|INTERRES
    45   22   86 1    
    46   23   24 2    
    47   23   25 1    
    48   25   26 1    
    49   25   27 1    
    50   25   87 1    
    51   26   88 1    
    52   26   89 1    
    53   26   90 1    
    54   27   28 am   BACKBONE|DICT|INTERRES
    55   27   91 1    
    56   28   29 2    
    57   28   30 1    
    58   30   31 1    
    59   30   32 1    
    60   30   92 1    
    61   31   93 1    
    62   31   94 1    
    63   31   95 1    
    64   32   33 am   BACKBONE|DICT|INTERRES
    65   32   96 1    
    66   33   34 2    
    67   33   35 1    
    68   35   36 1    
    69   35   37 1    
    70   35   97 1    
    71   36   98 1    
    72   36   99 1    
    73   36  100 1    
    74   37   38 am   BACKBONE|DICT|INTERRES
    75   37  101 1    
    76   38   39 2    
    77   38   40 1    
    78   40   41 1    
    79   40   42 1    
    80   40  102 1    
    81   41  103 1    
    82   41  104 1    
    83   41  105 1    
    84   42   43 am   BACKBONE|DICT|INTERRES
    85   42  106 1    
    86   43   44 2    
    87   43   45 1    
    88   45   46 1    
    89   45   49 1    
    90   45  107 1    
    91   46   47 1    
    92   46  108 1    
    93   46  109 1    
    94   47   48 1    
    95   48  110 1    
    96   48  111 1    
    97   49   50 am   BACKBONE|DICT|INTERRES
    98   49  112 1    
    99   50   51 2    
   100   50   52 1    
   101   52   53 1    
   102   52   54 1    
   103   52  113 1    
   104   53  114 1    
   105   53  115 1    
   106   53  116 1    
   107   54   55 am   BACKBONE|DICT|INTERRES
   108   54  117 1    
   109   55   56 2    
   110   55   57 1    
   111   57   58 1    
   112   57   59 1    
   113   57  118 1    
   114   58  119 1    
   115   58  120 1    
   116   58  121 1    
   117   59   60 am   BACKBONE|DICT|INTERRES
   118   59  122 1    
   119   60   61 2    
   120   60   62 1    
   121   62   63 1    
   122   62   64 1    
   123   62  123 1    
   124   63  124 1    
   125   63  125 1    
   126   63  126 1    
   127   64   65 am   BACKBONE|DICT|INTERRES
   128   64  127 1    
   129   65   66 2    
@<TRIPOS>SUBSTRUCTURE
     1 UNK         1 GROUP             0       ****    0 ROOT    
