@<TRIPOS>MOLECULE
3R135
127   129    1
SMALL
USER_CHARGES


@<TRIPOS>ATOM
      1 CA        -77.1804   27.1806  -67.0032 C.3       0 UNK        -0.1998 
      2 C         -78.5317   27.4147  -67.6615 C.2       0 UNK         0.4909 
      3 O         -79.5480   27.4608  -66.9673 O.2       0 UNK        -0.5240 
      4 N         -78.5547   27.5579  -68.9899 N.am      1 UNK        -0.4739 
      5 CA        -79.7640   27.7408  -69.7916 C.3       1 UNK         0.0864 
      6 C6        -80.0944   29.2436  -69.9793 C.3       11 UNK        -0.0881 
      7 S7        -81.7210   29.5269  -70.7626 S.3       11 UNK        -0.2682 
      8 C8        -81.3448   30.8198  -71.9907 C.3       11 UNK         0.0289 
      9 C9        -80.4502   30.3384  -73.1283 C.ar      11 UNK        -0.0687 
     10 C10       -80.9561   29.4914  -74.1206 C.ar      11 UNK        -0.0823 
     11 C11       -80.1583   29.1052  -75.2050 C.ar      11 UNK        -0.0830 
     12 C12       -78.8506   29.5886  -75.2946 C.ar      11 UNK        -0.1021 
     13 C13       -78.3215   30.4103  -74.2962 C.ar      11 UNK        -0.0753 
     14 C14       -79.1280   30.7850  -73.2176 C.ar      11 UNK        -0.0933 
     15 C15       -76.8776   30.8919  -74.3808 C.3       11 UNK         0.0166 
     16 S16       -75.6954   29.5173  -74.5734 S.3       11 UNK        -0.2615 
     17 C17       -76.1038   28.4839  -73.1220 C.3       11 UNK        -0.0865 
     18 CA        -74.8553   28.0142  -72.3399 C.3       10 UNK         0.0862 
     19 C         -75.2657   27.2450  -71.0531 C.2       10 UNK         0.5551 
     20 N         -75.1675   25.9226  -71.0163 N.am      10 UNK        -0.7319 
     21 O         -75.6741   27.8627  -70.0729 O.2       10 UNK        -0.5018 
     22 N         -73.9337   27.2903  -73.2223 N.am      10 UNK        -0.4509 
     23 C         -72.6593   26.9907  -72.9491 C.2       10 UNK         0.4899 
     24 O         -72.0956   27.2402  -71.8833 O.2       10 UNK        -0.4839 
     25 CA        -71.8719   26.3302  -74.0915 C.3       9 UNK         0.0222 
     26 CB        -72.0787   24.8103  -74.0694 C.3       9 UNK        -0.1966 
     27 N         -72.2680   26.8632  -75.3992 N.am      9 UNK        -0.4218 
     28 C         -71.9430   28.0903  -75.8382 C.2       9 UNK         0.5020 
     29 O         -71.2272   28.8713  -75.2074 O.2       9 UNK        -0.5274 
     30 CA        -72.5179   28.5156  -77.2039 C.3       8 UNK         0.0270 
     31 CB        -71.7432   29.6815  -77.8545 C.3       8 UNK        -0.1976 
     32 N         -72.6616   27.3937  -78.1364 N.am      8 UNK        -0.4313 
     33 C         -71.6947   26.5933  -78.6146 C.2       8 UNK         0.5041 
     34 O         -70.4941   26.7533  -78.3913 O.2       8 UNK        -0.5577 
     35 CA        -72.1356   25.3804  -79.4545 C.3       7 UNK         0.0284 
     36 CB        -71.8690   24.0785  -78.6806 C.3       7 UNK        -0.1958 
     37 N         -73.5536   25.4350  -79.8176 N.am      7 UNK        -0.4454 
     38 C         -74.0411   26.1103  -80.8668 C.2       7 UNK         0.5089 
     39 O         -73.3395   26.6906  -81.6955 O.2       7 UNK        -0.5125 
     40 CA        -75.5727   26.1675  -81.0045 C.3       6 UNK         0.0408 
     41 CB        -76.0662   25.0617  -81.9508 C.3       6 UNK        -0.1791 
     42 N         -76.2890   26.0674  -79.7276 N.am      6 UNK        -0.4762 
     43 C         -76.2583   26.9856  -78.7485 C.2       6 UNK         0.5007 
     44 O         -75.5704   28.0046  -78.7860 O.2       6 UNK        -0.5032 
     45 CA        -77.1214   26.6877  -77.5067 C.3       5 UNK         0.0783 
     46 C46       -78.6024   27.0317  -77.8223 C.3       11 UNK        -0.0857 
     47 S47       -79.7607   26.6421  -76.4661 S.3       11 UNK        -0.2512 
     48 C48       -80.7167   28.1888  -76.2882 C.3       11 UNK         0.0225 
     49 N         -76.9589   25.3047  -77.0409 N.am      5 UNK        -0.4615 
     50 C         -75.8102   24.7037  -76.6982 C.2       4 UNK         0.5053 
     51 O         -74.7033   25.2511  -76.7205 O.2       4 UNK        -0.5105 
     52 CA        -75.9580   23.2303  -76.2715 C.3       4 UNK         0.0263 
     53 CB        -74.6175   22.5087  -76.0348 C.3       4 UNK        -0.1981 
     54 N         -76.8523   23.0609  -75.1195 N.am      4 UNK        -0.4224 
     55 C         -76.7396   23.6241  -73.9069 C.2       3 UNK         0.4895 
     56 O         -75.8422   24.4000  -73.5692 O.2       3 UNK        -0.5091 
     57 CA        -77.8465   23.2702  -72.9077 C.3       3 UNK         0.0250 
     58 CB        -77.2796   22.8960  -71.5279 C.3       3 UNK        -0.1996 
     59 N         -78.7160   24.4331  -72.7755 N.am      3 UNK        -0.4254 
     60 C         -79.9983   24.4944  -73.1461 C.2       2 UNK         0.5004 
     61 O         -80.6310   23.5230  -73.5654 O.2       2 UNK        -0.5226 
     62 CA        -80.6864   25.8708  -73.0300 C.3       2 UNK         0.0269 
     63 CB        -82.1527   25.8436  -73.5019 C.3       2 UNK        -0.1926 
     64 N         -80.6363   26.4505  -71.6862 N.am      2 UNK        -0.4687 
     65 C         -79.5585   27.0186  -71.1313 C.2       1 UNK         0.5165 
     66 O         -78.4418   27.0059  -71.6496 O.2       1 UNK        -0.5079 
     67 H67       -76.4189   26.8971  -67.7287 H         1 UNK         0.0900 
     68 H68       -77.2530   26.3813  -66.2662 H         1 UNK         0.0900 
     69 H69       -76.8489   28.0855  -66.4948 H         1 UNK         0.0900 
     70 H70       -77.6934   27.5057  -69.5286 H         1 UNK         0.2959 
     71 H71       -80.5999   27.2562  -69.2815 H         1 UNK         0.1079 
     72 H72       -80.1142   29.7398  -69.0078 H         1 UNK         0.0837 
     73 H73       -79.3053   29.7377  -70.5482 H         1 UNK         0.0837 
     74 H74       -82.2844   31.1813  -72.4109 H         1 UNK         0.0685 
     75 H75       -80.8967   31.6737  -71.4801 H         1 UNK         0.0685 
     76 H76       -81.9782   29.1459  -74.0497 H         1 UNK         0.1434 
     77 H77       -78.2285   29.3092  -76.1318 H         1 UNK         0.1329 
     78 H78       -78.7297   31.4362  -72.4516 H         1 UNK         0.1335 
     79 H79       -76.7770   31.5676  -75.2310 H         1 UNK         0.0680 
     80 H80       -76.6049   31.4655  -73.4936 H         1 UNK         0.0680 
     81 H81       -76.6779   27.6244  -73.4740 H         1 UNK         0.1032 
     82 H82       -76.7690   29.0378  -72.4569 H         1 UNK         0.1032 
     83 H83       -74.3274   28.9077  -72.0009 H         1 UNK         0.0461 
     84 H84       -74.9504   25.4124  -71.8626 H         1 UNK         0.3453 
     85 H85       -75.4160   25.4301  -70.1755 H         1 UNK         0.3453 
     86 H86       -74.3085   27.0218  -74.1197 H         1 UNK         0.2984 
     87 H87       -70.8095   26.5346  -73.9429 H         1 UNK         0.0554 
     88 H88       -71.6756   24.3767  -73.1534 H         1 UNK         0.0847 
     89 H89       -71.5847   24.3214  -74.9093 H         1 UNK         0.0847 
     90 H90       -73.1385   24.5623  -74.1039 H         1 UNK         0.0847 
     91 H91       -72.8847   26.2908  -75.9656 H         1 UNK         0.3141 
     92 H92       -73.5303   28.8689  -77.0019 H         1 UNK         0.0743 
     93 H93       -71.7612   30.5664  -77.2171 H         1 UNK         0.0784 
     94 H94       -70.6972   29.4268  -78.0275 H         1 UNK         0.0784 
     95 H95       -72.1835   29.9640  -78.8108 H         1 UNK         0.0784 
     96 H96       -73.6180   27.1869  -78.3997 H         1 UNK         0.3213 
     97 H97       -71.5311   25.3684  -80.3643 H         1 UNK         0.0855 
     98 H98       -70.8019   23.9502  -78.4938 H         1 UNK         0.0814 
     99 H99       -72.2075   23.2036  -79.2358 H         1 UNK         0.0814 
    100 H100      -72.3660   24.0805  -77.7105 H         1 UNK         0.0814 
    101 H101      -74.2050   25.0077  -79.1740 H         1 UNK         0.3105 
    102 H102      -75.8234   27.1325  -81.4502 H         1 UNK         0.0547 
    103 H103      -75.5701   25.1280  -82.9202 H         1 UNK         0.0837 
    104 H104      -75.8660   24.0668  -81.5510 H         1 UNK         0.0837 
    105 H105      -77.1379   25.1426  -82.1331 H         1 UNK         0.0837 
    106 H106      -76.8742   25.2539  -79.5994 H         1 UNK         0.3020 
    107 H107      -76.7735   27.3395  -76.7020 H         1 UNK         0.1245 
    108 H108      -78.9480   26.4788  -78.6982 H         1 UNK         0.0781 
    109 H109      -78.6916   28.0867  -78.0867 H         1 UNK         0.0781 
    110 H110      -81.7465   27.9161  -76.0529 H         1 UNK         0.0836 
    111 H111      -80.7607   28.7243  -77.2373 H         1 UNK         0.0836 
    112 H112      -77.8171   24.7808  -76.9490 H         1 UNK         0.3022 
    113 H113      -76.4410   22.7261  -77.1100 H         1 UNK         0.0747 
    114 H114      -73.9641   22.5983  -76.9019 H         1 UNK         0.0793 
    115 H115      -74.0851   22.9055  -75.1744 H         1 UNK         0.0793 
    116 H116      -74.7721   21.4440  -75.8608 H         1 UNK         0.0793 
    117 H117      -77.6507   22.4623  -75.2816 H         1 UNK         0.3047 
    118 H118      -78.4006   22.4076  -73.2839 H         1 UNK         0.0822 
    119 H119      -76.5633   22.0774  -71.6080 H         1 UNK         0.0807 
    120 H120      -78.0720   22.5709  -70.8538 H         1 UNK         0.0807 
    121 H121      -76.7690   23.7340  -71.0560 H         1 UNK         0.0807 
    122 H122      -78.2777   25.2913  -72.4477 H         1 UNK         0.2946 
    123 H123      -80.1388   26.5458  -73.6886 H         1 UNK         0.1144 
    124 H124      -82.6003   26.8366  -73.4695 H         1 UNK         0.0793 
    125 H125      -82.7621   25.1803  -72.8872 H         1 UNK         0.0793 
    126 H126      -82.2238   25.4934  -74.5326 H         1 UNK         0.0793 
    127 H127      -81.5145   26.4949  -71.1895 H         1 UNK         0.2896 
@<TRIPOS>BOND
     1    1    2 1    
     2    1   67 1    
     3    1   68 1    
     4    1   69 1    
     5    2    3 2    
     6    2    4 am   BACKBONE|DICT|INTERRES
     7    4    5 1    
     8    4   70 1    
     9    5    6 1    
    10    5   65 1    
    11    5   71 1    
    12    6    7 1    
    13    6   72 1    
    14    6   73 1    
    15    7    8 1    
    16    8    9 1    
    17    8   74 1    
    18    8   75 1    
    19    9   10 ar   
    20    9   14 ar   
    21   10   11 ar   
    22   10   76 1    
    23   11   12 ar   
    24   11   48 1    
    25   12   13 ar   
    26   12   77 1    
    27   13   14 ar   
    28   13   15 1    
    29   14   78 1    
    30   15   16 1    
    31   15   79 1    
    32   15   80 1    
    33   16   17 1    
    34   17   18 1    
    35   17   81 1    
    36   17   82 1    
    37   18   19 1    
    38   18   22 1    
    39   18   83 1    
    40   19   20 am   BACKBONE|DICT|INTERRES
    41   19   21 2    
    42   20   84 1    
    43   20   85 1    
    44   22   23 am   BACKBONE|DICT|INTERRES
    45   22   86 1    
    46   23   24 2    
    47   23   25 1    
    48   25   26 1    
    49   25   27 1    
    50   25   87 1    
    51   26   88 1    
    52   26   89 1    
    53   26   90 1    
    54   27   28 am   BACKBONE|DICT|INTERRES
    55   27   91 1    
    56   28   29 2    
    57   28   30 1    
    58   30   31 1    
    59   30   32 1    
    60   30   92 1    
    61   31   93 1    
    62   31   94 1    
    63   31   95 1    
    64   32   33 am   BACKBONE|DICT|INTERRES
    65   32   96 1    
    66   33   34 2    
    67   33   35 1    
    68   35   36 1    
    69   35   37 1    
    70   35   97 1    
    71   36   98 1    
    72   36   99 1    
    73   36  100 1    
    74   37   38 am   BACKBONE|DICT|INTERRES
    75   37  101 1    
    76   38   39 2    
    77   38   40 1    
    78   40   41 1    
    79   40   42 1    
    80   40  102 1    
    81   41  103 1    
    82   41  104 1    
    83   41  105 1    
    84   42   43 am   BACKBONE|DICT|INTERRES
    85   42  106 1    
    86   43   44 2    
    87   43   45 1    
    88   45   46 1    
    89   45   49 1    
    90   45  107 1    
    91   46   47 1    
    92   46  108 1    
    93   46  109 1    
    94   47   48 1    
    95   48  110 1    
    96   48  111 1    
    97   49   50 am   BACKBONE|DICT|INTERRES
    98   49  112 1    
    99   50   51 2    
   100   50   52 1    
   101   52   53 1    
   102   52   54 1    
   103   52  113 1    
   104   53  114 1    
   105   53  115 1    
   106   53  116 1    
   107   54   55 am   BACKBONE|DICT|INTERRES
   108   54  117 1    
   109   55   56 2    
   110   55   57 1    
   111   57   58 1    
   112   57   59 1    
   113   57  118 1    
   114   58  119 1    
   115   58  120 1    
   116   58  121 1    
   117   59   60 am   BACKBONE|DICT|INTERRES
   118   59  122 1    
   119   60   61 2    
   120   60   62 1    
   121   62   63 1    
   122   62   64 1    
   123   62  123 1    
   124   63  124 1    
   125   63  125 1    
   126   63  126 1    
   127   64   65 am   BACKBONE|DICT|INTERRES
   128   64  127 1    
   129   65   66 2    
@<TRIPOS>SUBSTRUCTURE
     1 UNK         1 GROUP             0       ****    0 ROOT    
