@<TRIPOS>MOLECULE
3R135
127   129    1
SMALL
USER_CHARGES


@<TRIPOS>ATOM
      1 CA        -81.5186   31.5813  -75.9457 C.3       0 UNK        -0.1998 
      2 C         -81.1850   30.6727  -74.7720 C.2       0 UNK         0.4909 
      3 O         -81.2005   31.1232  -73.6262 O.2       0 UNK        -0.5240 
      4 N         -80.8830   29.3987  -75.0493 N.am      1 UNK        -0.4739 
      5 CA        -80.5318   28.3863  -74.0482 C.3       1 UNK         0.0864 
      6 C6        -81.7874   27.6351  -73.5277 C.3       11 UNK        -0.0881 
      7 S7        -81.6115   26.7638  -71.9294 S.3       11 UNK        -0.2682 
      8 C8        -81.0202   28.0482  -70.7740 C.3       11 UNK         0.0289 
      9 C9        -79.4998   28.0577  -70.6605 C.ar      11 UNK        -0.0687 
     10 C10       -78.8222   26.9048  -70.2520 C.ar      11 UNK        -0.0823 
     11 C11       -77.4269   26.8868  -70.1767 C.ar      11 UNK        -0.0830 
     12 C12       -76.7080   28.0448  -70.4841 C.ar      11 UNK        -0.1021 
     13 C13       -77.3703   29.1990  -70.9111 C.ar      11 UNK        -0.0753 
     14 C14       -78.7670   29.2068  -70.9751 C.ar      11 UNK        -0.0933 
     15 C15       -76.5813   30.4242  -71.3463 C.3       11 UNK         0.0166 
     16 S16       -76.1050   30.3003  -73.1019 S.3       11 UNK        -0.2615 
     17 C17       -74.5684   29.3127  -73.0114 C.3       11 UNK        -0.0865 
     18 CA        -73.3554   30.0718  -73.6107 C.3       10 UNK         0.0862 
     19 C         -72.0014   29.3970  -73.2388 C.2       10 UNK         0.5551 
     20 N         -71.1175   29.0832  -74.1798 N.am      10 UNK        -0.7319 
     21 O         -71.7344   29.1732  -72.0608 O.2       10 UNK        -0.5018 
     22 N         -73.5234   30.2895  -75.0546 N.am      10 UNK        -0.4509 
     23 C         -73.1033   31.3736  -75.7198 C.2       10 UNK         0.4899 
     24 O         -72.6115   32.3609  -75.1704 O.2       10 UNK        -0.4839 
     25 CA        -73.2561   31.3579  -77.2579 C.3       9 UNK         0.0222 
     26 CB        -72.2263   32.2666  -77.9633 C.3       9 UNK        -0.1966 
     27 N         -73.2426   30.0112  -77.8466 N.am      9 UNK        -0.4218 
     28 C         -72.2688   29.0957  -77.7399 C.2       9 UNK         0.5020 
     29 O         -71.1990   29.2784  -77.1536 O.2       9 UNK        -0.5274 
     30 CA        -72.5652   27.7193  -78.3577 C.3       8 UNK         0.0270 
     31 CB        -71.6668   27.4666  -79.5794 C.3       8 UNK        -0.1976 
     32 N         -72.3930   26.6311  -77.3905 N.am      8 UNK        -0.4313 
     33 C         -73.0134   26.5414  -76.2061 C.2       8 UNK         0.5041 
     34 O         -73.8245   27.3684  -75.7857 O.2       8 UNK        -0.5577 
     35 CA        -72.7222   25.2892  -75.3790 C.3       7 UNK         0.0284 
     36 CB        -72.6367   25.5922  -73.8714 C.3       7 UNK        -0.1958 
     37 N         -73.8110   24.3535  -75.6239 N.am      7 UNK        -0.4454 
     38 C         -73.6907   23.0248  -75.7209 C.2       7 UNK         0.5089 
     39 O         -72.6176   22.4224  -75.6518 O.2       7 UNK        -0.5125 
     40 CA        -75.0108   22.2521  -75.9031 C.3       6 UNK         0.0408 
     41 CB        -74.8556   20.7210  -75.7887 C.3       6 UNK        -0.1791 
     42 N         -76.0438   22.7647  -74.9973 N.am      6 UNK        -0.4762 
     43 C         -76.0493   22.7326  -73.6543 C.2       6 UNK         0.5007 
     44 O         -75.2452   22.0949  -72.9736 O.2       6 UNK        -0.5032 
     45 CA        -77.1403   23.5738  -72.9548 C.3       5 UNK         0.0783 
     46 C46       -76.6182   24.9926  -72.6163 C.3       11 UNK        -0.0857 
     47 S47       -75.5524   25.0478  -71.1333 S.3       11 UNK        -0.2512 
     48 C48       -76.6985   25.5971  -69.8204 C.3       11 UNK         0.0225 
     49 N         -78.3666   23.6656  -73.7513 N.am      5 UNK        -0.4615 
     50 C         -79.1780   22.6474  -74.0643 C.2       4 UNK         0.5053 
     51 O         -79.0439   21.5020  -73.6341 O.2       4 UNK        -0.5105 
     52 CA        -80.3129   22.9615  -75.0508 C.3       4 UNK         0.0263 
     53 CB        -81.5464   23.4996  -74.3092 C.3       4 UNK        -0.1981 
     54 N         -79.8838   23.9320  -76.0624 N.am      4 UNK        -0.4224 
     55 C         -79.1946   23.6142  -77.1677 C.2       3 UNK         0.4895 
     56 O         -78.9053   22.4604  -77.4847 O.2       3 UNK        -0.5091 
     57 CA        -78.7440   24.7714  -78.0773 C.3       3 UNK         0.0250 
     58 CB        -79.8149   25.0663  -79.1399 C.3       3 UNK        -0.1996 
     59 N         -78.4291   26.0049  -77.3520 N.am      3 UNK        -0.4254 
     60 C         -77.3623   26.1689  -76.5577 C.2       2 UNK         0.5004 
     61 O         -76.5246   25.2925  -76.3416 O.2       2 UNK        -0.5226 
     62 CA        -77.2225   27.5354  -75.8643 C.3       2 UNK         0.0269 
     63 CB        -76.6011   28.5582  -76.8309 C.3       2 UNK        -0.1926 
     64 N         -78.4619   28.1061  -75.3202 N.am      2 UNK        -0.4687 
     65 C         -79.3950   27.4890  -74.5779 C.2       1 UNK         0.5165 
     66 O         -79.3891   26.2804  -74.3442 O.2       1 UNK        -0.5079 
     67 H67       -82.5247   31.9843  -75.8331 H         1 UNK         0.0900 
     68 H68       -80.8195   32.4163  -75.9838 H         1 UNK         0.0900 
     69 H69       -81.4695   31.0540  -76.8982 H         1 UNK         0.0900 
     70 H70       -80.8905   29.0799  -76.0089 H         1 UNK         0.2959 
     71 H71       -80.0817   28.9120  -73.2120 H         1 UNK         0.1079 
     72 H72       -82.1366   26.9198  -74.2743 H         1 UNK         0.0837 
     73 H73       -82.6077   28.3430  -73.3992 H         1 UNK         0.0837 
     74 H74       -81.4390   27.8469  -69.7872 H         1 UNK         0.0685 
     75 H75       -81.4054   29.0233  -71.0773 H         1 UNK         0.0685 
     76 H76       -79.3864   26.0105  -70.0248 H         1 UNK         0.1434 
     77 H77       -75.6292   28.0256  -70.4313 H         1 UNK         0.1329 
     78 H78       -79.2809   30.1008  -71.3026 H         1 UNK         0.1335 
     79 H79       -75.6985   30.5592  -70.7195 H         1 UNK         0.0680 
     80 H80       -77.1867   31.3221  -71.2127 H         1 UNK         0.0680 
     81 H81       -74.3704   29.0557  -71.9713 H         1 UNK         0.1032 
     82 H82       -74.7266   28.3640  -73.5257 H         1 UNK         0.1032 
     83 H83       -73.3223   31.0454  -73.1182 H         1 UNK         0.0461 
     84 H84       -71.3058   29.2612  -75.1607 H         1 UNK         0.3453 
     85 H85       -70.2428   28.6649  -73.9086 H         1 UNK         0.3453 
     86 H86       -73.8491   29.4800  -75.5715 H         1 UNK         0.2984 
     87 H87       -74.2474   31.7652  -77.4615 H         1 UNK         0.0554 
     88 H88       -72.3265   33.3025  -77.6369 H         1 UNK         0.0847 
     89 H89       -72.3618   32.2567  -79.0447 H         1 UNK         0.0847 
     90 H90       -71.2024   31.9572  -77.7507 H         1 UNK         0.0847 
     91 H91       -74.0848   29.7497  -78.3400 H         1 UNK         0.3141 
     92 H92       -73.6054   27.6940  -78.6886 H         1 UNK         0.0743 
     93 H93       -70.6111   27.4413  -79.3050 H         1 UNK         0.0784 
     94 H94       -71.9112   26.5220  -80.0658 H         1 UNK         0.0784 
     95 H95       -71.7902   28.2542  -80.3241 H         1 UNK         0.0784 
     96 H96       -71.7424   25.9037  -77.6487 H         1 UNK         0.3213 
     97 H97       -71.7707   24.8631  -75.7045 H         1 UNK         0.0855 
     98 H98       -73.5586   26.0339  -73.4916 H         1 UNK         0.0814 
     99 H99       -71.8277   26.2918  -73.6607 H         1 UNK         0.0814 
    100 H100      -72.4427   24.6870  -73.2959 H         1 UNK         0.0814 
    101 H101      -74.7296   24.7711  -75.7636 H         1 UNK         0.3105 
    102 H102      -75.3594   22.4725  -76.9132 H         1 UNK         0.0547 
    103 H103      -75.8141   20.2159  -75.9065 H         1 UNK         0.0837 
    104 H104      -74.4331   20.4220  -74.8293 H         1 UNK         0.0837 
    105 H105      -74.1905   20.3409  -76.5649 H         1 UNK         0.0837 
    106 H106      -76.7184   23.3796  -75.4381 H         1 UNK         0.3020 
    107 H107      -77.4025   23.0619  -72.0262 H         1 UNK         0.1245 
    108 H108      -77.4581   25.6711  -72.4714 H         1 UNK         0.0781 
    109 H109      -76.0632   25.4170  -73.4553 H         1 UNK         0.0781 
    110 H110      -76.1353   25.7487  -68.8987 H         1 UNK         0.0836 
    111 H111      -77.4075   24.7927  -69.6186 H         1 UNK         0.0836 
    112 H112      -78.6153   24.5929  -74.0871 H         1 UNK         0.3022 
    113 H113      -80.5962   22.0301  -75.5460 H         1 UNK         0.0747 
    114 H114      -82.3690   23.6966  -74.9966 H         1 UNK         0.0793 
    115 H115      -81.9034   22.7784  -73.5728 H         1 UNK         0.0793 
    116 H116      -81.3254   24.4245  -73.7767 H         1 UNK         0.0793 
    117 H117      -80.0101   24.9095  -75.8301 H         1 UNK         0.3047 
    118 H118      -77.8367   24.4457  -78.5913 H         1 UNK         0.0822 
    119 H119      -79.4743   25.8221  -79.8479 H         1 UNK         0.0807 
    120 H120      -80.7446   25.4190  -78.6915 H         1 UNK         0.0807 
    121 H121      -80.0506   24.1697  -79.7152 H         1 UNK         0.0807 
    122 H122      -79.0639   26.7812  -77.4667 H         1 UNK         0.2946 
    123 H123      -76.5351   27.3946  -75.0276 H         1 UNK         0.1144 
    124 H124      -76.2641   29.4480  -76.2987 H         1 UNK         0.0793 
    125 H125      -77.3081   28.8713  -77.5998 H         1 UNK         0.0793 
    126 H126      -75.7349   28.1407  -77.3438 H         1 UNK         0.0793 
    127 H127      -78.5674   29.1032  -75.4417 H         1 UNK         0.2896 
@<TRIPOS>BOND
     1    1    2 1    
     2    1   67 1    
     3    1   68 1    
     4    1   69 1    
     5    2    3 2    
     6    2    4 am   BACKBONE|DICT|INTERRES
     7    4    5 1    
     8    4   70 1    
     9    5    6 1    
    10    5   65 1    
    11    5   71 1    
    12    6    7 1    
    13    6   72 1    
    14    6   73 1    
    15    7    8 1    
    16    8    9 1    
    17    8   74 1    
    18    8   75 1    
    19    9   10 ar   
    20    9   14 ar   
    21   10   11 ar   
    22   10   76 1    
    23   11   12 ar   
    24   11   48 1    
    25   12   13 ar   
    26   12   77 1    
    27   13   14 ar   
    28   13   15 1    
    29   14   78 1    
    30   15   16 1    
    31   15   79 1    
    32   15   80 1    
    33   16   17 1    
    34   17   18 1    
    35   17   81 1    
    36   17   82 1    
    37   18   19 1    
    38   18   22 1    
    39   18   83 1    
    40   19   20 am   BACKBONE|DICT|INTERRES
    41   19   21 2    
    42   20   84 1    
    43   20   85 1    
    44   22   23 am   BACKBONE|DICT|INTERRES
    45   22   86 1    
    46   23   24 2    
    47   23   25 1    
    48   25   26 1    
    49   25   27 1    
    50   25   87 1    
    51   26   88 1    
    52   26   89 1    
    53   26   90 1    
    54   27   28 am   BACKBONE|DICT|INTERRES
    55   27   91 1    
    56   28   29 2    
    57   28   30 1    
    58   30   31 1    
    59   30   32 1    
    60   30   92 1    
    61   31   93 1    
    62   31   94 1    
    63   31   95 1    
    64   32   33 am   BACKBONE|DICT|INTERRES
    65   32   96 1    
    66   33   34 2    
    67   33   35 1    
    68   35   36 1    
    69   35   37 1    
    70   35   97 1    
    71   36   98 1    
    72   36   99 1    
    73   36  100 1    
    74   37   38 am   BACKBONE|DICT|INTERRES
    75   37  101 1    
    76   38   39 2    
    77   38   40 1    
    78   40   41 1    
    79   40   42 1    
    80   40  102 1    
    81   41  103 1    
    82   41  104 1    
    83   41  105 1    
    84   42   43 am   BACKBONE|DICT|INTERRES
    85   42  106 1    
    86   43   44 2    
    87   43   45 1    
    88   45   46 1    
    89   45   49 1    
    90   45  107 1    
    91   46   47 1    
    92   46  108 1    
    93   46  109 1    
    94   47   48 1    
    95   48  110 1    
    96   48  111 1    
    97   49   50 am   BACKBONE|DICT|INTERRES
    98   49  112 1    
    99   50   51 2    
   100   50   52 1    
   101   52   53 1    
   102   52   54 1    
   103   52  113 1    
   104   53  114 1    
   105   53  115 1    
   106   53  116 1    
   107   54   55 am   BACKBONE|DICT|INTERRES
   108   54  117 1    
   109   55   56 2    
   110   55   57 1    
   111   57   58 1    
   112   57   59 1    
   113   57  118 1    
   114   58  119 1    
   115   58  120 1    
   116   58  121 1    
   117   59   60 am   BACKBONE|DICT|INTERRES
   118   59  122 1    
   119   60   61 2    
   120   60   62 1    
   121   62   63 1    
   122   62   64 1    
   123   62  123 1    
   124   63  124 1    
   125   63  125 1    
   126   63  126 1    
   127   64   65 am   BACKBONE|DICT|INTERRES
   128   64  127 1    
   129   65   66 2    
@<TRIPOS>SUBSTRUCTURE
     1 UNK         1 GROUP             0       ****    0 ROOT    
