@<TRIPOS>MOLECULE
3R135
127   129    1
SMALL
USER_CHARGES


@<TRIPOS>ATOM
      1 CA        -83.1571   30.2907  -78.5736 C.3       0 UNK        -0.1998 
      2 C         -82.1427   29.3986  -77.8735 C.2       0 UNK         0.4909 
      3 O         -81.6762   28.4226  -78.4626 O.2       0 UNK        -0.5240 
      4 N         -81.7917   29.7296  -76.6241 N.am      1 UNK        -0.4739 
      5 CA        -80.8835   28.9462  -75.7804 C.3       1 UNK         0.0864 
      6 C6        -80.3269   29.8037  -74.6176 C.3       11 UNK        -0.0881 
      7 S7        -78.6953   29.2159  -74.0620 S.3       11 UNK        -0.2682 
      8 C8        -79.0607   28.7003  -72.3595 C.3       11 UNK         0.0289 
      9 C9        -77.8069   28.1637  -71.6902 C.ar      11 UNK        -0.0687 
     10 C10       -77.5914   26.7889  -71.5951 C.ar      11 UNK        -0.0823 
     11 C11       -76.4299   26.2929  -70.9985 C.ar      11 UNK        -0.0830 
     12 C12       -75.4816   27.1877  -70.4902 C.ar      11 UNK        -0.1021 
     13 C13       -75.6693   28.5713  -70.5949 C.ar      11 UNK        -0.0753 
     14 C14       -76.8504   29.0467  -71.1840 C.ar      11 UNK        -0.0933 
     15 C15       -74.5792   29.5056  -70.0569 C.3       11 UNK         0.0166 
     16 S16       -74.7065   31.2419  -70.6199 S.3       11 UNK        -0.2615 
     17 C17       -73.0395   31.6119  -71.2605 C.3       11 UNK        -0.0865 
     18 CA        -72.8809   31.2247  -72.7637 C.3       10 UNK         0.0862 
     19 C         -71.8726   32.1064  -73.5554 C.2       10 UNK         0.5551 
     20 N         -71.7779   31.9079  -74.8642 N.am      10 UNK        -0.7319 
     21 O         -71.1818   32.9599  -73.0030 O.2       10 UNK        -0.5018 
     22 N         -72.6177   29.7920  -72.9731 N.am      10 UNK        -0.4509 
     23 C         -71.5208   29.1238  -72.5827 C.2       10 UNK         0.4899 
     24 O         -70.6298   29.5988  -71.8787 O.2       10 UNK        -0.4839 
     25 CA        -71.3859   27.6722  -73.0719 C.3       9 UNK         0.0222 
     26 CB        -72.1169   26.7151  -72.1204 C.3       9 UNK        -0.1966 
     27 N         -71.8898   27.4956  -74.4355 N.am      9 UNK        -0.4218 
     28 C         -71.2751   27.9525  -75.5362 C.2       9 UNK         0.5020 
     29 O         -70.1623   28.4801  -75.5340 O.2       9 UNK        -0.5274 
     30 CA        -72.0361   27.8108  -76.8654 C.3       8 UNK         0.0270 
     31 CB        -71.6277   26.5169  -77.5876 C.3       8 UNK        -0.1976 
     32 N         -73.4951   27.8516  -76.7090 N.am      8 UNK        -0.4313 
     33 C         -74.1862   28.9478  -76.3572 C.2       8 UNK         0.5041 
     34 O         -73.6409   30.0154  -76.0699 O.2       8 UNK        -0.5577 
     35 CA        -75.7236   28.8550  -76.2540 C.3       7 UNK         0.0284 
     36 CB        -76.4176   30.0075  -77.0094 C.3       7 UNK        -0.1958 
     37 N         -76.2997   27.5541  -76.6233 N.am      7 UNK        -0.4454 
     38 C         -76.3252   26.9593  -77.8268 C.2       7 UNK         0.5089 
     39 O         -75.8949   27.4729  -78.8597 O.2       7 UNK        -0.5125 
     40 CA        -76.8870   25.5199  -77.8528 C.3       6 UNK         0.0408 
     41 CB        -76.4135   24.7146  -79.0804 C.3       6 UNK        -0.1791 
     42 N         -76.6217   24.7751  -76.6116 N.am      6 UNK        -0.4762 
     43 C         -75.4191   24.5271  -76.0650 C.2       6 UNK         0.5007 
     44 O         -74.3594   24.8819  -76.5813 O.2       6 UNK        -0.5032 
     45 CA        -75.3704   23.8485  -74.6851 C.3       5 UNK         0.0783 
     46 C46       -75.1972   24.9313  -73.5947 C.3       11 UNK        -0.0857 
     47 S47       -74.7934   24.2450  -71.9519 S.3       11 UNK        -0.2512 
     48 C48       -76.2009   24.7877  -70.9286 C.3       11 UNK         0.0225 
     49 N         -76.5482   23.0060  -74.4467 N.am      5 UNK        -0.4615 
     50 C         -76.4911   21.7113  -74.1043 C.2       4 UNK         0.5053 
     51 O         -75.4424   21.0823  -73.9583 O.2       4 UNK        -0.5105 
     52 CA        -77.8286   20.9797  -73.8831 C.3       4 UNK         0.0263 
     53 CB        -78.2354   21.0518  -72.4022 C.3       4 UNK        -0.1981 
     54 N         -78.9218   21.4982  -74.7071 N.am      4 UNK        -0.4224 
     55 C         -78.9641   21.4555  -76.0461 C.2       3 UNK         0.4895 
     56 O         -78.1251   20.8783  -76.7383 O.2       3 UNK        -0.5091 
     57 CA        -80.1246   22.1921  -76.7418 C.3       3 UNK         0.0250 
     58 CB        -81.1478   21.1818  -77.2872 C.3       3 UNK        -0.1996 
     59 N         -80.8300   23.1905  -75.9247 N.am      3 UNK        -0.4254 
     60 C         -80.2813   24.2796  -75.3701 C.2       2 UNK         0.5004 
     61 O         -79.0685   24.5120  -75.3520 O.2       2 UNK        -0.5226 
     62 CA        -81.2379   25.2680  -74.7018 C.3       2 UNK         0.0269 
     63 CB        -81.2554   25.0768  -73.1763 C.3       2 UNK        -0.1926 
     64 N         -80.7783   26.6116  -75.0369 N.am      2 UNK        -0.4687 
     65 C         -81.5727   27.6600  -75.2736 C.2       1 UNK         0.5165 
     66 O         -82.7947   27.6423  -75.0995 O.2       1 UNK        -0.5079 
     67 H67       -84.0413   29.7134  -78.8424 H         1 UNK         0.0900 
     68 H68       -82.7278   30.7023  -79.4867 H         1 UNK         0.0900 
     69 H69       -83.4734   31.1216  -77.9432 H         1 UNK         0.0900 
     70 H70       -82.2344   30.5205  -76.1783 H         1 UNK         0.2959 
     71 H71       -80.0481   28.6462  -76.4185 H         1 UNK         0.1079 
     72 H72       -80.1796   30.8331  -74.9490 H         1 UNK         0.0837 
     73 H73       -81.0297   29.8610  -73.7837 H         1 UNK         0.0837 
     74 H74       -79.4471   29.5500  -71.7944 H         1 UNK         0.0685 
     75 H75       -79.8476   27.9443  -72.3677 H         1 UNK         0.0685 
     76 H76       -78.3219   26.1043  -72.0001 H         1 UNK         0.1434 
     77 H77       -74.5814   26.8010  -70.0317 H         1 UNK         0.1329 
     78 H78       -77.0373   30.1068  -71.2728 H         1 UNK         0.1335 
     79 H79       -74.6174   29.4946  -68.9670 H         1 UNK         0.0680 
     80 H80       -73.6023   29.1076  -70.3330 H         1 UNK         0.0680 
     81 H81       -72.2781   31.1513  -70.6309 H         1 UNK         0.1032 
     82 H82       -72.9095   32.6872  -71.1271 H         1 UNK         0.1032 
     83 H83       -73.8389   31.4217  -73.2477 H         1 UNK         0.0461 
     84 H84       -71.1320   32.4584  -75.4064 H         1 UNK         0.3453 
     85 H85       -72.3727   31.2206  -75.3225 H         1 UNK         0.3453 
     86 H86       -73.2662   29.3259  -73.5883 H         1 UNK         0.2984 
     87 H87       -70.3251   27.4125  -73.0627 H         1 UNK         0.0554 
     88 H88       -71.9721   25.6746  -72.4119 H         1 UNK         0.0847 
     89 H89       -73.1878   26.9135  -72.0991 H         1 UNK         0.0847 
     90 H90       -71.7467   26.8189  -71.0996 H         1 UNK         0.0847 
     91 H91       -72.7878   27.0511  -74.5463 H         1 UNK         0.3141 
     92 H92       -71.7488   28.6541  -77.4973 H         1 UNK         0.0743 
     93 H93       -71.8421   25.6323  -76.9872 H         1 UNK         0.0784 
     94 H94       -72.1475   26.4107  -78.5401 H         1 UNK         0.0784 
     95 H95       -70.5577   26.5122  -77.7997 H         1 UNK         0.0784 
     96 H96       -73.9970   26.9939  -76.9104 H         1 UNK         0.3213 
     97 H97       -75.9453   28.9833  -75.1937 H         1 UNK         0.0855 
     98 H98       -76.1038   30.9754  -76.6167 H         1 UNK         0.0814 
     99 H99       -77.5014   29.9553  -76.9058 H         1 UNK         0.0814 
    100 H100      -76.1798   29.9989  -78.0732 H         1 UNK         0.0814 
    101 H101      -76.6843   27.0248  -75.8537 H         1 UNK         0.3105 
    102 H102      -77.9714   25.6193  -77.9211 H         1 UNK         0.0547 
    103 H103      -76.7274   25.1940  -80.0083 H         1 UNK         0.0837 
    104 H104      -75.3272   24.6258  -79.1125 H         1 UNK         0.0837 
    105 H105      -76.8325   23.7084  -79.0792 H         1 UNK         0.0837 
    106 H106      -77.4617   24.5149  -76.0970 H         1 UNK         0.3020 
    107 H107      -74.4670   23.2340  -74.6962 H         1 UNK         0.1245 
    108 H108      -76.0936   25.5489  -73.5433 H         1 UNK         0.0781 
    109 H109      -74.3829   25.6097  -73.8527 H         1 UNK         0.0781 
    110 H110      -76.0171   24.5001  -69.8927 H         1 UNK         0.0836 
    111 H111      -77.0917   24.2419  -71.2437 H         1 UNK         0.0836 
    112 H112      -77.4556   23.4411  -74.5624 H         1 UNK         0.3022 
    113 H113      -77.6783   19.9311  -74.1488 H         1 UNK         0.0747 
    114 H114      -79.1330   20.4645  -72.2072 H         1 UNK         0.0793 
    115 H115      -77.4459   20.6562  -71.7614 H         1 UNK         0.0793 
    116 H116      -78.4279   22.0776  -72.0851 H         1 UNK         0.0793 
    117 H117      -79.6638   21.9852  -74.2270 H         1 UNK         0.3047 
    118 H118      -79.6881   22.7245  -77.5898 H         1 UNK         0.0822 
    119 H119      -81.9134   21.6743  -77.8870 H         1 UNK         0.0807 
    120 H120      -81.6463   20.6390  -76.4830 H         1 UNK         0.0807 
    121 H121      -80.6658   20.4424  -77.9288 H         1 UNK         0.0807 
    122 H122      -81.8311   23.0717  -75.8573 H         1 UNK         0.2946 
    123 H123      -82.2440   25.1127  -75.0990 H         1 UNK         0.1144 
    124 H124      -81.6388   24.0908  -72.9109 H         1 UNK         0.0793 
    125 H125      -81.8952   25.8144  -72.6916 H         1 UNK         0.0793 
    126 H126      -80.2584   25.1646  -72.7468 H         1 UNK         0.0793 
    127 H127      -79.7829   26.6842  -75.2040 H         1 UNK         0.2896 
@<TRIPOS>BOND
     1    1    2 1    
     2    1   67 1    
     3    1   68 1    
     4    1   69 1    
     5    2    3 2    
     6    2    4 am   BACKBONE|DICT|INTERRES
     7    4    5 1    
     8    4   70 1    
     9    5    6 1    
    10    5   65 1    
    11    5   71 1    
    12    6    7 1    
    13    6   72 1    
    14    6   73 1    
    15    7    8 1    
    16    8    9 1    
    17    8   74 1    
    18    8   75 1    
    19    9   10 ar   
    20    9   14 ar   
    21   10   11 ar   
    22   10   76 1    
    23   11   12 ar   
    24   11   48 1    
    25   12   13 ar   
    26   12   77 1    
    27   13   14 ar   
    28   13   15 1    
    29   14   78 1    
    30   15   16 1    
    31   15   79 1    
    32   15   80 1    
    33   16   17 1    
    34   17   18 1    
    35   17   81 1    
    36   17   82 1    
    37   18   19 1    
    38   18   22 1    
    39   18   83 1    
    40   19   20 am   BACKBONE|DICT|INTERRES
    41   19   21 2    
    42   20   84 1    
    43   20   85 1    
    44   22   23 am   BACKBONE|DICT|INTERRES
    45   22   86 1    
    46   23   24 2    
    47   23   25 1    
    48   25   26 1    
    49   25   27 1    
    50   25   87 1    
    51   26   88 1    
    52   26   89 1    
    53   26   90 1    
    54   27   28 am   BACKBONE|DICT|INTERRES
    55   27   91 1    
    56   28   29 2    
    57   28   30 1    
    58   30   31 1    
    59   30   32 1    
    60   30   92 1    
    61   31   93 1    
    62   31   94 1    
    63   31   95 1    
    64   32   33 am   BACKBONE|DICT|INTERRES
    65   32   96 1    
    66   33   34 2    
    67   33   35 1    
    68   35   36 1    
    69   35   37 1    
    70   35   97 1    
    71   36   98 1    
    72   36   99 1    
    73   36  100 1    
    74   37   38 am   BACKBONE|DICT|INTERRES
    75   37  101 1    
    76   38   39 2    
    77   38   40 1    
    78   40   41 1    
    79   40   42 1    
    80   40  102 1    
    81   41  103 1    
    82   41  104 1    
    83   41  105 1    
    84   42   43 am   BACKBONE|DICT|INTERRES
    85   42  106 1    
    86   43   44 2    
    87   43   45 1    
    88   45   46 1    
    89   45   49 1    
    90   45  107 1    
    91   46   47 1    
    92   46  108 1    
    93   46  109 1    
    94   47   48 1    
    95   48  110 1    
    96   48  111 1    
    97   49   50 am   BACKBONE|DICT|INTERRES
    98   49  112 1    
    99   50   51 2    
   100   50   52 1    
   101   52   53 1    
   102   52   54 1    
   103   52  113 1    
   104   53  114 1    
   105   53  115 1    
   106   53  116 1    
   107   54   55 am   BACKBONE|DICT|INTERRES
   108   54  117 1    
   109   55   56 2    
   110   55   57 1    
   111   57   58 1    
   112   57   59 1    
   113   57  118 1    
   114   58  119 1    
   115   58  120 1    
   116   58  121 1    
   117   59   60 am   BACKBONE|DICT|INTERRES
   118   59  122 1    
   119   60   61 2    
   120   60   62 1    
   121   62   63 1    
   122   62   64 1    
   123   62  123 1    
   124   63  124 1    
   125   63  125 1    
   126   63  126 1    
   127   64   65 am   BACKBONE|DICT|INTERRES
   128   64  127 1    
   129   65   66 2    
@<TRIPOS>SUBSTRUCTURE
     1 UNK         1 GROUP             0       ****    0 ROOT    
