@<TRIPOS>MOLECULE
3R135
127   129    1
SMALL
USER_CHARGES


@<TRIPOS>ATOM
      1 CA        -83.7224   24.0055  -69.5742 C.3       0 UNK        -0.1998 
      2 C         -82.6798   24.4628  -70.5828 C.2       0 UNK         0.4909 
      3 O         -81.8314   23.6667  -70.9840 O.2       0 UNK        -0.5240 
      4 N         -82.7550   25.7314  -71.0091 N.am      1 UNK        -0.4739 
      5 CA        -81.8551   26.4467  -71.9342 C.3       1 UNK         0.0864 
      6 C6        -80.3764   26.5080  -71.4673 C.3       11 UNK        -0.0881 
      7 S7        -80.1622   27.2407  -69.8083 S.3       11 UNK        -0.2682 
      8 C8        -80.2758   29.0296  -70.1465 C.3       11 UNK         0.0289 
      9 C9        -79.2218   29.5120  -71.1337 C.ar      11 UNK        -0.0687 
     10 C10       -79.5935   29.9127  -72.4206 C.ar      11 UNK        -0.0823 
     11 C11       -78.6310   30.3483  -73.3365 C.ar      11 UNK        -0.0830 
     12 C12       -77.2867   30.3876  -72.9556 C.ar      11 UNK        -0.1021 
     13 C13       -76.9050   29.9947  -71.6689 C.ar      11 UNK        -0.0753 
     14 C14       -77.8757   29.5605  -70.7614 C.ar      11 UNK        -0.0933 
     15 C15       -75.4428   30.0321  -71.2610 C.3       11 UNK         0.0166 
     16 S16       -74.6134   28.4850  -71.7217 S.3       11 UNK        -0.2615 
     17 C17       -72.9097   28.8355  -71.1649 C.3       11 UNK        -0.0865 
     18 CA        -72.0669   29.6610  -72.1767 C.3       10 UNK         0.0862 
     19 C         -70.5932   29.7628  -71.6834 C.2       10 UNK         0.5551 
     20 N         -69.6348   29.0896  -72.3106 N.am      10 UNK        -0.7319 
     21 O         -70.3210   30.4620  -70.7107 O.2       10 UNK        -0.5018 
     22 N         -72.2274   29.1561  -73.5460 N.am      10 UNK        -0.4509 
     23 C         -71.7767   29.7258  -74.6703 C.2       10 UNK         0.4899 
     24 O         -71.2205   30.8239  -74.7093 O.2       10 UNK        -0.4839 
     25 CA        -71.9939   28.9228  -75.9693 C.3       9 UNK         0.0222 
     26 CB        -70.8899   29.1687  -77.0183 C.3       9 UNK        -0.1966 
     27 N         -72.1883   27.4848  -75.7341 N.am      9 UNK        -0.4218 
     28 C         -71.3193   26.6236  -75.1779 C.2       9 UNK         0.5020 
     29 O         -70.1820   26.9281  -74.8154 O.2       9 UNK        -0.5274 
     30 CA        -71.8195   25.1920  -74.9416 C.3       8 UNK         0.0270 
     31 CB        -72.4747   25.0787  -73.5534 C.3       8 UNK        -0.1976 
     32 N         -72.7806   24.7887  -75.9708 N.am      8 UNK        -0.4313 
     33 C         -72.4987   23.9636  -76.9866 C.2       8 UNK         0.5041 
     34 O         -71.4154   23.3955  -77.1338 O.2       8 UNK        -0.5577 
     35 CA        -73.6112   23.7265  -78.0195 C.3       7 UNK         0.0284 
     36 CB        -74.5834   22.6403  -77.5300 C.3       7 UNK        -0.1958 
     37 N         -74.3586   24.9381  -78.3679 N.am      7 UNK        -0.4454 
     38 C         -73.8574   25.9625  -79.0754 C.2       7 UNK         0.5089 
     39 O         -72.6856   26.0278  -79.4468 O.2       7 UNK        -0.5125 
     40 CA        -74.8206   27.0980  -79.4540 C.3       6 UNK         0.0408 
     41 CB        -75.6301   26.7149  -80.7034 C.3       6 UNK        -0.1791 
     42 N         -75.7420   27.4086  -78.3618 N.am      6 UNK        -0.4762 
     43 C         -75.7651   28.5604  -77.6750 C.2       6 UNK         0.5007 
     44 O         -75.0527   29.5303  -77.9340 O.2       6 UNK        -0.5032 
     45 CA        -76.7573   28.6531  -76.4942 C.3       5 UNK         0.0783 
     46 C46       -78.0596   29.3439  -76.9773 C.3       11 UNK        -0.0857 
     47 S47       -79.4270   29.3295  -75.7691 S.3       11 UNK        -0.2512 
     48 C48       -79.0565   30.7774  -74.7319 C.3       11 UNK         0.0225 
     49 N         -77.0212   27.3633  -75.8474 N.am      5 UNK        -0.4615 
     50 C         -76.1109   26.5217  -75.3413 C.2       4 UNK         0.5053 
     51 O         -74.8952   26.7168  -75.3648 O.2       4 UNK        -0.5105 
     52 CA        -76.6406   25.1913  -74.7870 C.3       4 UNK         0.0263 
     53 CB        -77.0136   25.3550  -73.3059 C.3       4 UNK        -0.1981 
     54 N         -77.7829   24.6250  -75.5182 N.am      4 UNK        -0.4224 
     55 C         -77.9036   24.4498  -76.8423 C.2       3 UNK         0.4895 
     56 O         -77.0685   24.8387  -77.6611 O.2       3 UNK        -0.5091 
     57 CA        -79.1580   23.7211  -77.3629 C.3       3 UNK         0.0250 
     58 CB        -78.8973   22.2049  -77.4464 C.3       3 UNK        -0.1996 
     59 N         -80.4223   24.0036  -76.6592 N.am      3 UNK        -0.4254 
     60 C         -80.7574   23.7450  -75.3869 C.2       2 UNK         0.5004 
     61 O         -79.9909   23.2517  -74.5562 O.2       2 UNK        -0.5226 
     62 CA        -82.1984   24.0783  -74.9728 C.3       2 UNK         0.0269 
     63 CB        -83.0586   22.8048  -74.9412 C.3       2 UNK        -0.1926 
     64 N         -82.2091   24.6938  -73.6473 N.am      2 UNK        -0.4687 
     65 C         -81.9326   25.9796  -73.4052 C.2       1 UNK         0.5165 
     66 O         -81.7494   26.8038  -74.3013 O.2       1 UNK        -0.5079 
     67 H67       -84.2999   23.1758  -69.9811 H         1 UNK         0.0900 
     68 H68       -84.4151   24.8047  -69.3112 H         1 UNK         0.0900 
     69 H69       -83.2349   23.6660  -68.6607 H         1 UNK         0.0900 
     70 H70       -83.5072   26.3026  -70.6495 H         1 UNK         0.2959 
     71 H71       -82.2283   27.4718  -71.9482 H         1 UNK         0.1079 
     72 H72       -79.9421   25.5069  -71.4488 H         1 UNK         0.0837 
     73 H73       -79.7718   27.0716  -72.1791 H         1 UNK         0.0837 
     74 H74       -81.2793   29.2627  -70.5051 H         1 UNK         0.0685 
     75 H75       -80.1580   29.5710  -69.2068 H         1 UNK         0.0685 
     76 H76       -80.6327   29.8751  -72.7185 H         1 UNK         0.1434 
     77 H77       -76.5347   30.7198  -73.6580 H         1 UNK         0.1329 
     78 H78       -77.5837   29.2468  -69.7684 H         1 UNK         0.1335 
     79 H79       -74.9425   30.8730  -71.7437 H         1 UNK         0.0680 
     80 H80       -75.3522   30.1900  -70.1851 H         1 UNK         0.0680 
     81 H81       -72.9464   29.3400  -70.1973 H         1 UNK         0.1032 
     82 H82       -72.4322   27.8713  -70.9781 H         1 UNK         0.1032 
     83 H83       -72.4581   30.6798  -72.1797 H         1 UNK         0.0461 
     84 H84       -69.8519   28.5111  -73.1108 H         1 UNK         0.3453 
     85 H85       -68.6843   29.1624  -71.9841 H         1 UNK         0.3453 
     86 H86       -72.7080   28.2725  -73.6244 H         1 UNK         0.2984 
     87 H87       -72.9314   29.2868  -76.3876 H         1 UNK         0.0554 
     88 H88       -71.0748   28.5963  -77.9275 H         1 UNK         0.0847 
     89 H89       -69.9039   28.8943  -76.6422 H         1 UNK         0.0847 
     90 H90       -70.8474   30.2208  -77.3025 H         1 UNK         0.0847 
     91 H91       -73.1397   27.1566  -75.8778 H         1 UNK         0.3141 
     92 H92       -70.9481   24.5339  -74.9543 H         1 UNK         0.0743 
     93 H93       -73.3405   25.7335  -73.4499 H         1 UNK         0.0784 
     94 H94       -72.8035   24.0585  -73.3549 H         1 UNK         0.0784 
     95 H95       -71.7686   25.3493  -72.7671 H         1 UNK         0.0784 
     96 H96       -73.6892   25.2380  -75.9405 H         1 UNK         0.3213 
     97 H97       -73.1352   23.3605  -78.9321 H         1 UNK         0.0855 
     98 H98       -75.1034   22.9392  -76.6200 H         1 UNK         0.0814 
     99 H99       -74.0528   21.7126  -77.3113 H         1 UNK         0.0814 
    100 H100      -75.3356   22.4120  -78.2852 H         1 UNK         0.0814 
    101 H101      -75.3484   24.9415  -78.1276 H         1 UNK         0.3105 
    102 H102      -74.2129   27.9707  -79.7021 H         1 UNK         0.0547 
    103 H103      -74.9704   26.4693  -81.5367 H         1 UNK         0.0837 
    104 H104      -76.2675   25.8479  -80.5237 H         1 UNK         0.0837 
    105 H105      -76.2681   27.5371  -81.0274 H         1 UNK         0.0837 
    106 H106      -76.3582   26.6591  -78.0623 H         1 UNK         0.3020 
    107 H107      -76.2898   29.2875  -75.7388 H         1 UNK         0.1245 
    108 H108      -78.4389   28.8450  -77.8718 H         1 UNK         0.0781 
    109 H109      -77.8588   30.3739  -77.2785 H         1 UNK         0.0781 
    110 H110      -79.9508   31.3985  -74.6631 H         1 UNK         0.0836 
    111 H111      -78.2914   31.4016  -75.1956 H         1 UNK         0.0836 
    112 H112      -77.9956   27.1084  -75.7760 H         1 UNK         0.3022 
    113 H113      -75.8290   24.4653  -74.8531 H         1 UNK         0.0747 
    114 H114      -77.3168   24.4063  -72.8625 H         1 UNK         0.0793 
    115 H115      -76.1665   25.7277  -72.7276 H         1 UNK         0.0793 
    116 H116      -77.8313   26.0639  -73.1754 H         1 UNK         0.0793 
    117 H117      -78.5248   24.2163  -74.9518 H         1 UNK         0.3047 
    118 H118      -79.3093   24.0792  -78.3827 H         1 UNK         0.0822 
    119 H119      -79.7344   21.6836  -77.9107 H         1 UNK         0.0807 
    120 H120      -78.7321   21.7642  -76.4626 H         1 UNK         0.0807 
    121 H121      -78.0118   21.9940  -78.0477 H         1 UNK         0.0807 
    122 H122      -81.1264   24.4403  -77.2389 H         1 UNK         0.2946 
    123 H123      -82.6328   24.7750  -75.6938 H         1 UNK         0.1144 
    124 H124      -82.6712   22.0742  -74.2295 H         1 UNK         0.0793 
    125 H125      -83.0835   22.3253  -75.9207 H         1 UNK         0.0793 
    126 H126      -84.0887   23.0290  -74.6635 H         1 UNK         0.0793 
    127 H127      -82.2344   24.0700  -72.8463 H         1 UNK         0.2896 
@<TRIPOS>BOND
     1    1    2 1    
     2    1   67 1    
     3    1   68 1    
     4    1   69 1    
     5    2    3 2    
     6    2    4 am   BACKBONE|DICT|INTERRES
     7    4    5 1    
     8    4   70 1    
     9    5    6 1    
    10    5   65 1    
    11    5   71 1    
    12    6    7 1    
    13    6   72 1    
    14    6   73 1    
    15    7    8 1    
    16    8    9 1    
    17    8   74 1    
    18    8   75 1    
    19    9   10 ar   
    20    9   14 ar   
    21   10   11 ar   
    22   10   76 1    
    23   11   12 ar   
    24   11   48 1    
    25   12   13 ar   
    26   12   77 1    
    27   13   14 ar   
    28   13   15 1    
    29   14   78 1    
    30   15   16 1    
    31   15   79 1    
    32   15   80 1    
    33   16   17 1    
    34   17   18 1    
    35   17   81 1    
    36   17   82 1    
    37   18   19 1    
    38   18   22 1    
    39   18   83 1    
    40   19   20 am   BACKBONE|DICT|INTERRES
    41   19   21 2    
    42   20   84 1    
    43   20   85 1    
    44   22   23 am   BACKBONE|DICT|INTERRES
    45   22   86 1    
    46   23   24 2    
    47   23   25 1    
    48   25   26 1    
    49   25   27 1    
    50   25   87 1    
    51   26   88 1    
    52   26   89 1    
    53   26   90 1    
    54   27   28 am   BACKBONE|DICT|INTERRES
    55   27   91 1    
    56   28   29 2    
    57   28   30 1    
    58   30   31 1    
    59   30   32 1    
    60   30   92 1    
    61   31   93 1    
    62   31   94 1    
    63   31   95 1    
    64   32   33 am   BACKBONE|DICT|INTERRES
    65   32   96 1    
    66   33   34 2    
    67   33   35 1    
    68   35   36 1    
    69   35   37 1    
    70   35   97 1    
    71   36   98 1    
    72   36   99 1    
    73   36  100 1    
    74   37   38 am   BACKBONE|DICT|INTERRES
    75   37  101 1    
    76   38   39 2    
    77   38   40 1    
    78   40   41 1    
    79   40   42 1    
    80   40  102 1    
    81   41  103 1    
    82   41  104 1    
    83   41  105 1    
    84   42   43 am   BACKBONE|DICT|INTERRES
    85   42  106 1    
    86   43   44 2    
    87   43   45 1    
    88   45   46 1    
    89   45   49 1    
    90   45  107 1    
    91   46   47 1    
    92   46  108 1    
    93   46  109 1    
    94   47   48 1    
    95   48  110 1    
    96   48  111 1    
    97   49   50 am   BACKBONE|DICT|INTERRES
    98   49  112 1    
    99   50   51 2    
   100   50   52 1    
   101   52   53 1    
   102   52   54 1    
   103   52  113 1    
   104   53  114 1    
   105   53  115 1    
   106   53  116 1    
   107   54   55 am   BACKBONE|DICT|INTERRES
   108   54  117 1    
   109   55   56 2    
   110   55   57 1    
   111   57   58 1    
   112   57   59 1    
   113   57  118 1    
   114   58  119 1    
   115   58  120 1    
   116   58  121 1    
   117   59   60 am   BACKBONE|DICT|INTERRES
   118   59  122 1    
   119   60   61 2    
   120   60   62 1    
   121   62   63 1    
   122   62   64 1    
   123   62  123 1    
   124   63  124 1    
   125   63  125 1    
   126   63  126 1    
   127   64   65 am   BACKBONE|DICT|INTERRES
   128   64  127 1    
   129   65   66 2    
@<TRIPOS>SUBSTRUCTURE
     1 UNK         1 GROUP             0       ****    0 ROOT    
