@<TRIPOS>MOLECULE
3R135
127   129    1
SMALL
USER_CHARGES


@<TRIPOS>ATOM
      1 CA        -84.3393   27.2016  -71.7995 C.3       0 UNK        -0.1998 
      2 C         -83.7025   27.6328  -73.1121 C.2       0 UNK         0.4909 
      3 O         -84.4022   27.7720  -74.1157 O.2       0 UNK        -0.5240 
      4 N         -82.3798   27.8455  -73.1115 N.am      1 UNK        -0.4739 
      5 CA        -81.5985   28.2553  -74.2879 C.3       1 UNK         0.0864 
      6 C6        -80.2288   28.8591  -73.8890 C.3       11 UNK        -0.0881 
      7 S7        -80.4262   30.4364  -72.9955 S.3       11 UNK        -0.2682 
      8 C8        -80.0908   29.9538  -71.2725 C.3       11 UNK         0.0289 
      9 C9        -78.6048   29.7683  -70.9990 C.ar      11 UNK        -0.0687 
     10 C10       -78.0943   28.5127  -70.6538 C.ar      11 UNK        -0.0823 
     11 C11       -76.7394   28.3614  -70.3401 C.ar      11 UNK        -0.0830 
     12 C12       -75.8896   29.4710  -70.3937 C.ar      11 UNK        -0.1021 
     13 C13       -76.3886   30.7288  -70.7415 C.ar      11 UNK        -0.0753 
     14 C14       -77.7465   30.8711  -71.0392 C.ar      11 UNK        -0.0933 
     15 C15       -75.4790   31.9471  -70.7553 C.3       11 UNK         0.0166 
     16 S16       -75.0007   32.4164  -72.4461 S.3       11 UNK        -0.2615 
     17 C17       -73.6378   31.2543  -72.8126 C.3       11 UNK        -0.0865 
     18 CA        -73.9772   30.1921  -73.9043 C.3       10 UNK         0.0862 
     19 C         -74.0245   30.7340  -75.3671 C.2       10 UNK         0.5551 
     20 N         -74.3267   32.0068  -75.5759 N.am      10 UNK        -0.7319 
     21 O         -73.8445   29.9916  -76.3301 O.2       10 UNK        -0.5018 
     22 N         -73.1375   28.9882  -73.7860 N.am      10 UNK        -0.4509 
     23 C         -71.7988   28.9503  -73.8538 C.2       10 UNK         0.4899 
     24 O         -71.0845   29.9455  -73.9767 O.2       10 UNK        -0.4839 
     25 CA        -71.1374   27.5690  -73.7700 C.3       9 UNK         0.0222 
     26 CB        -71.3090   26.9416  -72.3748 C.3       9 UNK        -0.1966 
     27 N         -71.6630   26.6759  -74.8003 N.am      9 UNK        -0.4218 
     28 C         -70.9710   25.7003  -75.4028 C.2       9 UNK         0.5020 
     29 O         -69.8038   25.4151  -75.1297 O.2       9 UNK        -0.5274 
     30 CA        -71.6948   24.9094  -76.5085 C.3       8 UNK         0.0270 
     31 CB        -72.4974   23.7426  -75.9094 C.3       8 UNK        -0.1976 
     32 N         -72.5832   25.7449  -77.3182 N.am      8 UNK        -0.4313 
     33 C         -72.1902   26.7201  -78.1481 C.2       8 UNK         0.5041 
     34 O         -71.0088   26.9699  -78.3912 O.2       8 UNK        -0.5577 
     35 CA        -73.2825   27.5891  -78.8002 C.3       7 UNK         0.0284 
     36 CB        -73.6496   27.0776  -80.2076 C.3       7 UNK        -0.1958 
     37 N         -74.4670   27.7910  -77.9526 N.am      7 UNK        -0.4454 
     38 C         -75.4131   26.9085  -77.6107 C.2       7 UNK         0.5089 
     39 O         -75.4624   25.7520  -78.0308 O.2       7 UNK        -0.5125 
     40 CA        -76.4423   27.3750  -76.5700 C.3       6 UNK         0.0408 
     41 CB        -77.8119   27.5942  -77.2278 C.3       6 UNK        -0.1791 
     42 N         -76.5633   26.4037  -75.4784 N.am      6 UNK        -0.4762 
     43 C         -75.5701   26.1074  -74.6264 C.2       6 UNK         0.5007 
     44 O         -74.4746   26.6674  -74.6573 O.2       6 UNK        -0.5032 
     45 CA        -75.8001   25.0000  -73.5845 C.3       5 UNK         0.0783 
     46 C46       -76.4385   25.5506  -72.2863 C.3       11 UNK        -0.0857 
     47 S47       -75.1696   26.2357  -71.1723 S.3       11 UNK        -0.2512 
     48 C48       -76.1961   27.0132  -69.8920 C.3       11 UNK         0.0225 
     49 N         -76.5568   23.8803  -74.1483 N.am      5 UNK        -0.4615 
     50 C         -76.1639   22.5982  -74.0930 C.2       4 UNK         0.5053 
     51 O         -75.1425   22.2201  -73.5187 O.2       4 UNK        -0.5105 
     52 CA        -77.0469   21.5430  -74.7890 C.3       4 UNK         0.0263 
     53 CB        -77.9521   20.8419  -73.7632 C.3       4 UNK        -0.1981 
     54 N         -77.8784   22.0998  -75.8551 N.am      4 UNK        -0.4224 
     55 C         -77.4165   22.6131  -77.0036 C.2       3 UNK         0.4895 
     56 O         -76.2478   22.5017  -77.3731 O.2       3 UNK        -0.5091 
     57 CA        -78.4148   23.4009  -77.8777 C.3       3 UNK         0.0250 
     58 CB        -78.6952   22.6465  -79.1881 C.3       3 UNK        -0.1996 
     59 N         -79.6979   23.7283  -77.2341 N.am      3 UNK        -0.4254 
     60 C         -79.8647   24.4704  -76.1298 C.2       2 UNK         0.5004 
     61 O         -78.9328   24.9329  -75.4659 O.2       2 UNK        -0.5226 
     62 CA        -81.3110   24.6464  -75.6414 C.3       2 UNK         0.0269 
     63 CB        -81.7371   23.4311  -74.8009 C.3       2 UNK        -0.1926 
     64 N         -81.4760   25.8551  -74.8327 N.am      2 UNK        -0.4687 
     65 C         -81.4210   27.1083  -75.3059 C.2       1 UNK         0.5165 
     66 O         -81.2608   27.3786  -76.4971 O.2       1 UNK        -0.5079 
     67 H67       -84.8158   26.2286  -71.9157 H         1 UNK         0.0900 
     68 H68       -85.1009   27.9205  -71.4987 H         1 UNK         0.0900 
     69 H69       -83.6076   27.1273  -70.9952 H         1 UNK         0.0900 
     70 H70       -81.8587   27.7248  -72.2559 H         1 UNK         0.2959 
     71 H71       -82.1653   29.0311  -74.8087 H         1 UNK         0.1079 
     72 H72       -79.6409   28.1543  -73.2980 H         1 UNK         0.0837 
     73 H73       -79.6331   29.0785  -74.7763 H         1 UNK         0.0837 
     74 H74       -80.4716   30.7359  -70.6142 H         1 UNK         0.0685 
     75 H75       -80.6529   29.0524  -71.0261 H         1 UNK         0.0685 
     76 H76       -78.7554   27.6584  -70.6031 H         1 UNK         0.1434 
     77 H77       -74.8426   29.3551  -70.1485 H         1 UNK         0.1329 
     78 H78       -78.1392   31.8454  -71.2972 H         1 UNK         0.1335 
     79 H79       -76.0025   32.7881  -70.2981 H         1 UNK         0.0680 
     80 H80       -74.5896   31.7815  -70.1454 H         1 UNK         0.0680 
     81 H81       -73.3595   30.7492  -71.8869 H         1 UNK         0.1032 
     82 H82       -72.7581   31.8326  -73.1001 H         1 UNK         0.1032 
     83 H83       -74.9871   29.8308  -73.7054 H         1 UNK         0.0461 
     84 H84       -74.3777   32.3583  -76.5186 H         1 UNK         0.3453 
     85 H85       -74.5238   32.6126  -74.7924 H         1 UNK         0.3453 
     86 H86       -73.6481   28.1099  -73.7836 H         1 UNK         0.2984 
     87 H87       -70.0699   27.7199  -73.9453 H         1 UNK         0.0554 
     88 H88       -70.7318   26.0218  -72.2815 H         1 UNK         0.0847 
     89 H89       -72.3515   26.7022  -72.1650 H         1 UNK         0.0847 
     90 H90       -70.9646   27.6211  -71.5942 H         1 UNK         0.0847 
     91 H91       -72.6387   26.8094  -75.0552 H         1 UNK         0.3141 
     92 H92       -70.9329   24.4942  -77.1716 H         1 UNK         0.0743 
     93 H93       -73.2844   24.0919  -75.2415 H         1 UNK         0.0784 
     94 H94       -72.9658   23.1397  -76.6880 H         1 UNK         0.0784 
     95 H95       -71.8511   23.0807  -75.3315 H         1 UNK         0.0784 
     96 H96       -73.5811   25.5812  -77.2371 H         1 UNK         0.3213 
     97 H97       -72.8482   28.5833  -78.9194 H         1 UNK         0.0855 
     98 H98       -72.7734   27.0763  -80.8571 H         1 UNK         0.0814 
     99 H99       -74.4009   27.7122  -80.6775 H         1 UNK         0.0814 
    100 H100      -74.0340   26.0577  -80.1879 H         1 UNK         0.0814 
    101 H101      -74.4540   28.6777  -77.4485 H         1 UNK         0.3105 
    102 H102      -76.1154   28.3233  -76.1384 H         1 UNK         0.0547 
    103 H103      -77.7521   28.3490  -78.0127 H         1 UNK         0.0837 
    104 H104      -78.1955   26.6813  -77.6830 H         1 UNK         0.0837 
    105 H105      -78.5480   27.9377  -76.5039 H         1 UNK         0.0837 
    106 H106      -77.4423   25.8916  -75.4284 H         1 UNK         0.3020 
    107 H107      -74.7991   24.6384  -73.3368 H         1 UNK         0.1245 
    108 H108      -76.9400   24.7482  -71.7427 H         1 UNK         0.0781 
    109 H109      -77.2055   26.2989  -72.4963 H         1 UNK         0.0781 
    110 H110      -75.5894   27.1539  -68.9963 H         1 UNK         0.0836 
    111 H111      -77.0033   26.3367  -69.6065 H         1 UNK         0.0836 
    112 H112      -77.4120   24.1165  -74.6432 H         1 UNK         0.3022 
    113 H113      -76.3827   20.7974  -75.2313 H         1 UNK         0.0747 
    114 H114      -78.5335   20.0439  -74.2256 H         1 UNK         0.0793 
    115 H115      -77.3601   20.3887  -72.9666 H         1 UNK         0.0793 
    116 H116      -78.6485   21.5389  -73.2950 H         1 UNK         0.0793 
    117 H117      -78.8574   22.2242  -75.6467 H         1 UNK         0.3047 
    118 H118      -77.9248   24.3437  -78.1277 H         1 UNK         0.0822 
    119 H119      -79.3121   23.2386  -79.8643 H         1 UNK         0.0807 
    120 H120      -79.2049   21.6993  -79.0072 H         1 UNK         0.0807 
    121 H121      -77.7675   22.4214  -79.7166 H         1 UNK         0.0807 
    122 H122      -80.5213   23.3639  -77.6926 H         1 UNK         0.2946 
    123 H123      -81.9658   24.7274  -76.5122 H         1 UNK         0.1144 
    124 H124      -81.6749   22.5083  -75.3793 H         1 UNK         0.0793 
    125 H125      -82.7690   23.5263  -74.4620 H         1 UNK         0.0793 
    126 H126      -81.1055   23.3074  -73.9198 H         1 UNK         0.0793 
    127 H127      -81.5969   25.7266  -73.8394 H         1 UNK         0.2896 
@<TRIPOS>BOND
     1    1    2 1    
     2    1   67 1    
     3    1   68 1    
     4    1   69 1    
     5    2    3 2    
     6    2    4 am   BACKBONE|DICT|INTERRES
     7    4    5 1    
     8    4   70 1    
     9    5    6 1    
    10    5   65 1    
    11    5   71 1    
    12    6    7 1    
    13    6   72 1    
    14    6   73 1    
    15    7    8 1    
    16    8    9 1    
    17    8   74 1    
    18    8   75 1    
    19    9   10 ar   
    20    9   14 ar   
    21   10   11 ar   
    22   10   76 1    
    23   11   12 ar   
    24   11   48 1    
    25   12   13 ar   
    26   12   77 1    
    27   13   14 ar   
    28   13   15 1    
    29   14   78 1    
    30   15   16 1    
    31   15   79 1    
    32   15   80 1    
    33   16   17 1    
    34   17   18 1    
    35   17   81 1    
    36   17   82 1    
    37   18   19 1    
    38   18   22 1    
    39   18   83 1    
    40   19   20 am   BACKBONE|DICT|INTERRES
    41   19   21 2    
    42   20   84 1    
    43   20   85 1    
    44   22   23 am   BACKBONE|DICT|INTERRES
    45   22   86 1    
    46   23   24 2    
    47   23   25 1    
    48   25   26 1    
    49   25   27 1    
    50   25   87 1    
    51   26   88 1    
    52   26   89 1    
    53   26   90 1    
    54   27   28 am   BACKBONE|DICT|INTERRES
    55   27   91 1    
    56   28   29 2    
    57   28   30 1    
    58   30   31 1    
    59   30   32 1    
    60   30   92 1    
    61   31   93 1    
    62   31   94 1    
    63   31   95 1    
    64   32   33 am   BACKBONE|DICT|INTERRES
    65   32   96 1    
    66   33   34 2    
    67   33   35 1    
    68   35   36 1    
    69   35   37 1    
    70   35   97 1    
    71   36   98 1    
    72   36   99 1    
    73   36  100 1    
    74   37   38 am   BACKBONE|DICT|INTERRES
    75   37  101 1    
    76   38   39 2    
    77   38   40 1    
    78   40   41 1    
    79   40   42 1    
    80   40  102 1    
    81   41  103 1    
    82   41  104 1    
    83   41  105 1    
    84   42   43 am   BACKBONE|DICT|INTERRES
    85   42  106 1    
    86   43   44 2    
    87   43   45 1    
    88   45   46 1    
    89   45   49 1    
    90   45  107 1    
    91   46   47 1    
    92   46  108 1    
    93   46  109 1    
    94   47   48 1    
    95   48  110 1    
    96   48  111 1    
    97   49   50 am   BACKBONE|DICT|INTERRES
    98   49  112 1    
    99   50   51 2    
   100   50   52 1    
   101   52   53 1    
   102   52   54 1    
   103   52  113 1    
   104   53  114 1    
   105   53  115 1    
   106   53  116 1    
   107   54   55 am   BACKBONE|DICT|INTERRES
   108   54  117 1    
   109   55   56 2    
   110   55   57 1    
   111   57   58 1    
   112   57   59 1    
   113   57  118 1    
   114   58  119 1    
   115   58  120 1    
   116   58  121 1    
   117   59   60 am   BACKBONE|DICT|INTERRES
   118   59  122 1    
   119   60   61 2    
   120   60   62 1    
   121   62   63 1    
   122   62   64 1    
   123   62  123 1    
   124   63  124 1    
   125   63  125 1    
   126   63  126 1    
   127   64   65 am   BACKBONE|DICT|INTERRES
   128   64  127 1    
   129   65   66 2    
@<TRIPOS>SUBSTRUCTURE
     1 UNK         1 GROUP             0       ****    0 ROOT    
