@<TRIPOS>MOLECULE
3R135
127   129    1
SMALL
USER_CHARGES


@<TRIPOS>ATOM
      1 CA        -78.0140   23.1371  -68.9498 C.3       0 UNK        -0.1998 
      2 C         -79.1523   24.0661  -69.3449 C.2       0 UNK         0.4909 
      3 O         -79.8294   24.6120  -68.4734 O.2       0 UNK        -0.5240 
      4 N         -79.3682   24.2465  -70.6508 N.am      1 UNK        -0.4739 
      5 CA        -80.4237   25.0674  -71.2405 C.3       1 UNK         0.0864 
      6 C6        -80.1054   26.5838  -71.1565 C.3       11 UNK        -0.0881 
      7 S7        -81.6036   27.6215  -71.1115 S.3       11 UNK        -0.2682 
      8 C8        -80.9054   29.2094  -70.5469 C.3       11 UNK         0.0289 
      9 C9        -79.7860   29.6916  -71.4595 C.ar      11 UNK        -0.0687 
     10 C10       -80.0724   30.0875  -72.7682 C.ar      11 UNK        -0.0823 
     11 C11       -79.0451   30.4632  -73.6384 C.ar      11 UNK        -0.0830 
     12 C12       -77.7247   30.4764  -73.1813 C.ar      11 UNK        -0.1021 
     13 C13       -77.4285   30.0991  -71.8681 C.ar      11 UNK        -0.0753 
     14 C14       -78.4613   29.7057  -71.0115 C.ar      11 UNK        -0.0933 
     15 C15       -75.9884   30.0947  -71.3860 C.3       11 UNK         0.0166 
     16 S16       -75.1532   28.5648  -71.8931 S.3       11 UNK        -0.2615 
     17 C17       -73.4619   28.8801  -71.2826 C.3       11 UNK        -0.0865 
     18 CA        -72.5877   29.7340  -72.2429 C.3       10 UNK         0.0862 
     19 C         -71.1305   29.8199  -71.6988 C.2       10 UNK         0.5551 
     20 N         -70.1485   29.1742  -72.3189 N.am      10 UNK        -0.7319 
     21 O         -70.8927   30.4820  -70.6919 O.2       10 UNK        -0.5018 
     22 N         -72.7012   29.2716  -73.6323 N.am      10 UNK        -0.4509 
     23 C         -72.2106   29.8809  -74.7191 C.2       10 UNK         0.4899 
     24 O         -71.6749   30.9898  -74.7020 O.2       10 UNK        -0.4839 
     25 CA        -72.3419   29.1060  -76.0466 C.3       9 UNK         0.0222 
     26 CB        -71.2174   29.4371  -77.0494 C.3       9 UNK        -0.1966 
     27 N         -72.4661   27.6544  -75.8513 N.am      9 UNK        -0.4218 
     28 C         -71.5749   26.8297  -75.2761 C.2       9 UNK         0.5020 
     29 O         -70.4651   27.1860  -74.8770 O.2       9 UNK        -0.5274 
     30 CA        -72.0124   25.3752  -75.0538 C.3       8 UNK         0.0270 
     31 CB        -72.6490   25.2222  -73.6607 C.3       8 UNK        -0.1976 
     32 N         -72.9661   24.9312  -76.0749 N.am      8 UNK        -0.4313 
     33 C         -72.6991   24.0145  -77.0137 C.2       8 UNK         0.5041 
     34 O         -71.6277   23.4128  -77.1035 O.2       8 UNK        -0.5577 
     35 CA        -73.8107   23.7030  -78.0292 C.3       7 UNK         0.0284 
     36 CB        -74.7340   22.5920  -77.5022 C.3       7 UNK        -0.1958 
     37 N         -74.6112   24.8693  -78.4129 N.am      7 UNK        -0.4454 
     38 C         -74.1607   25.8706  -79.1846 C.2       7 UNK         0.5089 
     39 O         -72.9976   25.9600  -79.5777 O.2       7 UNK        -0.5125 
     40 CA        -75.1738   26.9429  -79.6112 C.3       6 UNK         0.0408 
     41 CB        -76.0000   26.4473  -80.8092 C.3       6 UNK        -0.1791 
     42 N         -76.0779   27.2914  -78.5169 N.am      6 UNK        -0.4762 
     43 C         -76.0824   28.4631  -77.8643 C.2       6 UNK         0.5007 
     44 O         -75.3569   29.4152  -78.1514 O.2       6 UNK        -0.5032 
     45 CA        -77.0726   28.5985  -76.6861 C.3       5 UNK         0.0783 
     46 C46       -78.3915   29.2173  -77.2208 C.3       11 UNK        -0.0857 
     47 S47       -79.7536   29.3008  -76.0146 S.3       11 UNK        -0.2512 
     48 C48       -79.3713   30.8137  -75.0797 C.3       11 UNK         0.0225 
     49 N         -77.2847   27.3370  -75.9622 N.am      5 UNK        -0.4615 
     50 C         -76.3238   26.5637  -75.4332 C.2       4 UNK         0.5053 
     51 O         -75.1244   26.8397  -75.4626 O.2       4 UNK        -0.5105 
     52 CA        -76.7427   25.2034  -74.8506 C.3       4 UNK         0.0263 
     53 CB        -76.9088   25.3083  -73.3291 C.3       4 UNK        -0.1981 
     54 N         -77.9474   24.6148  -75.4526 N.am      4 UNK        -0.4224 
     55 C         -78.1413   24.4017  -76.7661 C.2       3 UNK         0.4895 
     56 O         -77.3198   24.7095  -77.6332 O.2       3 UNK        -0.5091 
     57 CA        -79.4609   23.7448  -77.2092 C.3       3 UNK         0.0250 
     58 CB        -79.2058   22.2961  -77.6553 C.3       3 UNK        -0.1996 
     59 N         -80.5171   23.7535  -76.1935 N.am      3 UNK        -0.4254 
     60 C         -81.1548   24.8431  -75.7428 C.2       2 UNK         0.5004 
     61 O         -80.9233   25.9829  -76.1434 O.2       2 UNK        -0.5226 
     62 CA        -82.2194   24.6316  -74.6472 C.3       2 UNK         0.0269 
     63 CB        -82.7976   23.1981  -74.6130 C.3       2 UNK        -0.1926 
     64 N         -81.7439   25.0149  -73.3105 N.am      2 UNK        -0.4687 
     65 C         -80.6414   24.5777  -72.6855 C.2       1 UNK         0.5165 
     66 O         -79.8177   23.8125  -73.1997 O.2       1 UNK        -0.5079 
     67 H67       -77.4969   22.7335  -69.8203 H         1 UNK         0.0900 
     68 H68       -77.2859   23.6739  -68.3423 H         1 UNK         0.0900 
     69 H69       -78.3971   22.3015  -68.3647 H         1 UNK         0.0900 
     70 H70       -78.8348   23.7324  -71.3423 H         1 UNK         0.2959 
     71 H71       -81.3419   24.8556  -70.6874 H         1 UNK         0.1079 
     72 H72       -79.5410   26.8007  -70.2483 H         1 UNK         0.0837 
     73 H73       -79.4711   26.9098  -71.9817 H         1 UNK         0.0837 
     74 H74       -81.6984   29.9579  -70.5196 H         1 UNK         0.0685 
     75 H75       -80.5506   29.0986  -69.5210 H         1 UNK         0.0685 
     76 H76       -81.0937   30.0598  -73.1236 H         1 UNK         0.1434 
     77 H77       -76.9230   30.7595  -73.8493 H         1 UNK         0.1329 
     78 H78       -78.2303   29.3924  -70.0026 H         1 UNK         0.1335 
     79 H79       -75.9469   30.1915  -70.2999 H         1 UNK         0.0680 
     80 H80       -75.4587   30.9551  -71.7977 H         1 UNK         0.0680 
     81 H81       -72.9962   27.9062  -71.1183 H         1 UNK         0.1032 
     82 H82       -73.5201   29.3504  -70.2990 H         1 UNK         0.1032 
     83 H83       -72.9784   30.7529  -72.2275 H         1 UNK         0.0461 
     84 H84       -69.2104   29.2384  -71.9571 H         1 UNK         0.3453 
     85 H85       -70.3325   28.6271  -73.1499 H         1 UNK         0.3453 
     86 H86       -73.1656   28.3843  -73.7555 H         1 UNK         0.2984 
     87 H87       -73.2835   29.4316  -76.4878 H         1 UNK         0.0554 
     88 H88       -71.2216   30.4970  -77.3059 H         1 UNK         0.0847 
     89 H89       -71.3402   28.8802  -77.9785 H         1 UNK         0.0847 
     90 H90       -70.2315   29.2052  -76.6455 H         1 UNK         0.0847 
     91 H91       -73.3999   27.2880  -76.0154 H         1 UNK         0.3141 
     92 H92       -71.1099   24.7609  -75.0782 H         1 UNK         0.0743 
     93 H93       -73.5403   25.8393  -73.5458 H         1 UNK         0.0784 
     94 H94       -72.9326   24.1875  -73.4678 H         1 UNK         0.0784 
     95 H95       -71.9482   25.5166  -72.8781 H         1 UNK         0.0784 
     96 H96       -73.8687   25.3920  -76.0818 H         1 UNK         0.3213 
     97 H97       -73.3247   23.3273  -78.9326 H         1 UNK         0.0855 
     98 H98       -75.2580   22.8921  -76.5956 H         1 UNK         0.0814 
     99 H99       -74.1641   21.6926  -77.2650 H         1 UNK         0.0814 
    100 H100      -75.4832   22.3137  -78.2436 H         1 UNK         0.0814 
    101 H101      -75.5960   24.8472  -78.1547 H         1 UNK         0.3105 
    102 H102      -74.6080   27.8193  -79.9341 H         1 UNK         0.0547 
    103 H103      -75.3529   26.1717  -81.6430 H         1 UNK         0.0837 
    104 H104      -76.5983   25.5711  -80.5555 H         1 UNK         0.0837 
    105 H105      -76.6777   27.2218  -81.1683 H         1 UNK         0.0837 
    106 H106      -76.6969   26.5565  -78.1894 H         1 UNK         0.3020 
    107 H107      -76.6269   29.2951  -75.9733 H         1 UNK         0.1245 
    108 H108      -78.7673   28.6296  -78.0613 H         1 UNK         0.0781 
    109 H109      -78.2127   30.2185  -77.6182 H         1 UNK         0.0781 
    110 H110      -80.2359   31.4785  -75.1082 H         1 UNK         0.0836 
    111 H111      -78.5493   31.3609  -75.5433 H         1 UNK         0.0836 
    112 H112      -78.2454   27.0299  -75.8918 H         1 UNK         0.3022 
    113 H113      -75.9230   24.5106  -75.0437 H         1 UNK         0.0747 
    114 H114      -77.1083   24.3352  -72.8812 H         1 UNK         0.0793 
    115 H115      -76.0033   25.6975  -72.8616 H         1 UNK         0.0793 
    116 H116      -77.7226   25.9807  -73.0644 H         1 UNK         0.0793 
    117 H117      -78.6731   24.3171  -74.8074 H         1 UNK         0.3047 
    118 H118      -79.8225   24.3099  -78.0710 H         1 UNK         0.0822 
    119 H119      -80.1093   21.8394  -78.0598 H         1 UNK         0.0807 
    120 H120      -78.8542   21.6755  -76.8300 H         1 UNK         0.0807 
    121 H121      -78.4471   22.2555  -78.4386 H         1 UNK         0.0807 
    122 H122      -80.7482   22.8645  -75.7738 H         1 UNK         0.2946 
    123 H123      -83.0387   25.3091  -74.8947 H         1 UNK         0.1144 
    124 H124      -83.6458   23.1385  -73.9309 H         1 UNK         0.0793 
    125 H125      -82.0647   22.4600  -74.2851 H         1 UNK         0.0793 
    126 H126      -83.1601   22.8947  -75.5963 H         1 UNK         0.0793 
    127 H127      -82.3155   25.6946  -72.8256 H         1 UNK         0.2896 
@<TRIPOS>BOND
     1    1    2 1    
     2    1   67 1    
     3    1   68 1    
     4    1   69 1    
     5    2    3 2    
     6    2    4 am   BACKBONE|DICT|INTERRES
     7    4    5 1    
     8    4   70 1    
     9    5    6 1    
    10    5   65 1    
    11    5   71 1    
    12    6    7 1    
    13    6   72 1    
    14    6   73 1    
    15    7    8 1    
    16    8    9 1    
    17    8   74 1    
    18    8   75 1    
    19    9   10 ar   
    20    9   14 ar   
    21   10   11 ar   
    22   10   76 1    
    23   11   12 ar   
    24   11   48 1    
    25   12   13 ar   
    26   12   77 1    
    27   13   14 ar   
    28   13   15 1    
    29   14   78 1    
    30   15   16 1    
    31   15   79 1    
    32   15   80 1    
    33   16   17 1    
    34   17   18 1    
    35   17   81 1    
    36   17   82 1    
    37   18   19 1    
    38   18   22 1    
    39   18   83 1    
    40   19   20 am   BACKBONE|DICT|INTERRES
    41   19   21 2    
    42   20   84 1    
    43   20   85 1    
    44   22   23 am   BACKBONE|DICT|INTERRES
    45   22   86 1    
    46   23   24 2    
    47   23   25 1    
    48   25   26 1    
    49   25   27 1    
    50   25   87 1    
    51   26   88 1    
    52   26   89 1    
    53   26   90 1    
    54   27   28 am   BACKBONE|DICT|INTERRES
    55   27   91 1    
    56   28   29 2    
    57   28   30 1    
    58   30   31 1    
    59   30   32 1    
    60   30   92 1    
    61   31   93 1    
    62   31   94 1    
    63   31   95 1    
    64   32   33 am   BACKBONE|DICT|INTERRES
    65   32   96 1    
    66   33   34 2    
    67   33   35 1    
    68   35   36 1    
    69   35   37 1    
    70   35   97 1    
    71   36   98 1    
    72   36   99 1    
    73   36  100 1    
    74   37   38 am   BACKBONE|DICT|INTERRES
    75   37  101 1    
    76   38   39 2    
    77   38   40 1    
    78   40   41 1    
    79   40   42 1    
    80   40  102 1    
    81   41  103 1    
    82   41  104 1    
    83   41  105 1    
    84   42   43 am   BACKBONE|DICT|INTERRES
    85   42  106 1    
    86   43   44 2    
    87   43   45 1    
    88   45   46 1    
    89   45   49 1    
    90   45  107 1    
    91   46   47 1    
    92   46  108 1    
    93   46  109 1    
    94   47   48 1    
    95   48  110 1    
    96   48  111 1    
    97   49   50 am   BACKBONE|DICT|INTERRES
    98   49  112 1    
    99   50   51 2    
   100   50   52 1    
   101   52   53 1    
   102   52   54 1    
   103   52  113 1    
   104   53  114 1    
   105   53  115 1    
   106   53  116 1    
   107   54   55 am   BACKBONE|DICT|INTERRES
   108   54  117 1    
   109   55   56 2    
   110   55   57 1    
   111   57   58 1    
   112   57   59 1    
   113   57  118 1    
   114   58  119 1    
   115   58  120 1    
   116   58  121 1    
   117   59   60 am   BACKBONE|DICT|INTERRES
   118   59  122 1    
   119   60   61 2    
   120   60   62 1    
   121   62   63 1    
   122   62   64 1    
   123   62  123 1    
   124   63  124 1    
   125   63  125 1    
   126   63  126 1    
   127   64   65 am   BACKBONE|DICT|INTERRES
   128   64  127 1    
   129   65   66 2    
@<TRIPOS>SUBSTRUCTURE
     1 UNK         1 GROUP             0       ****    0 ROOT    
