@<TRIPOS>MOLECULE
3R135
127   129    1
SMALL
USER_CHARGES


@<TRIPOS>ATOM
      1 CA        -83.0408   25.5288  -69.9741 C.3       0 UNK        -0.1998 
      2 C         -81.5682   25.1335  -70.0325 C.2       0 UNK         0.4909 
      3 O         -81.0609   24.5615  -69.0692 O.2       0 UNK        -0.5240 
      4 N         -80.8414   25.3992  -71.1241 N.am      1 UNK        -0.4739 
      5 CA        -81.2898   26.0013  -72.3836 C.3       1 UNK         0.0864 
      6 C6        -80.7393   27.4389  -72.5675 C.3       11 UNK        -0.0881 
      7 S7        -81.5156   28.6372  -71.4303 S.3       11 UNK        -0.2682 
      8 C8        -80.0676   29.3443  -70.5664 C.3       11 UNK         0.0289 
      9 C9        -79.0482   30.0400  -71.4716 C.ar      11 UNK        -0.0687 
     10 C10       -79.4036   30.5943  -72.7069 C.ar      11 UNK        -0.0823 
     11 C11       -78.4387   31.1713  -73.5356 C.ar      11 UNK        -0.0830 
     12 C12       -77.1107   31.2324  -73.1082 C.ar      11 UNK        -0.1021 
     13 C13       -76.7373   30.7004  -71.8716 C.ar      11 UNK        -0.0753 
     14 C14       -77.7159   30.1186  -71.0550 C.ar      11 UNK        -0.0933 
     15 C15       -75.2747   30.7651  -71.4434 C.3       11 UNK         0.0166 
     16 S16       -74.7040   29.2397  -70.6293 S.3       11 UNK        -0.2615 
     17 C17       -72.8901   29.4131  -70.7619 C.3       11 UNK        -0.0865 
     18 CA        -72.2480   28.3637  -71.7064 C.3       10 UNK         0.0862 
     19 C         -72.3763   26.9166  -71.1530 C.2       10 UNK         0.5551 
     20 N         -73.1905   26.0476  -71.7419 N.am      10 UNK        -0.7319 
     21 O         -71.7088   26.5730  -70.1804 O.2       10 UNK        -0.5018 
     22 N         -72.7054   28.4937  -73.0970 N.am      10 UNK        -0.4509 
     23 C         -72.1037   29.2097  -74.0500 C.2       10 UNK         0.4899 
     24 O         -71.1827   30.0016  -73.8405 O.2       10 UNK        -0.4839 
     25 CA        -72.5953   28.9405  -75.4877 C.3       9 UNK         0.0222 
     26 CB        -71.8095   29.7279  -76.5564 C.3       9 UNK        -0.1966 
     27 N         -72.6088   27.5033  -75.8070 N.am      9 UNK        -0.4218 
     28 C         -71.5804   26.6430  -75.7162 C.2       9 UNK         0.5020 
     29 O         -70.4257   26.9680  -75.4359 O.2       9 UNK        -0.5274 
     30 CA        -71.8861   25.1555  -75.9550 C.3       8 UNK         0.0270 
     31 CB        -72.3022   24.4698  -74.6464 C.3       8 UNK        -0.1976 
     32 N         -72.9139   24.9185  -76.9696 N.am      8 UNK        -0.4313 
     33 C         -72.6787   24.9702  -78.2868 C.2       8 UNK         0.5041 
     34 O         -71.6025   25.3107  -78.7800 O.2       8 UNK        -0.5577 
     35 CA        -73.8261   24.5518  -79.2109 C.3       7 UNK         0.0284 
     36 CB        -74.1077   23.0423  -79.1007 C.3       7 UNK        -0.1958 
     37 N         -75.0421   25.3065  -78.9074 N.am      7 UNK        -0.4454 
     38 C         -75.5995   26.1907  -79.7432 C.2       7 UNK         0.5089 
     39 O         -75.1394   26.4772  -80.8495 O.2       7 UNK        -0.5125 
     40 CA        -76.9087   26.8599  -79.2995 C.3       6 UNK         0.0408 
     41 CB        -78.1183   26.0670  -79.8203 C.3       6 UNK        -0.1791 
     42 N         -77.0515   27.0596  -77.8566 N.am      6 UNK        -0.4762 
     43 C         -76.3465   27.9435  -77.1350 C.2       6 UNK         0.5007 
     44 O         -75.3319   28.5093  -77.5400 O.2       6 UNK        -0.5032 
     45 CA        -76.8992   28.2674  -75.7349 C.3       5 UNK         0.0783 
     46 C46       -78.2497   29.0270  -75.8379 C.3       11 UNK        -0.0857 
     47 S47       -77.9981   30.7884  -76.2651 S.3       11 UNK        -0.2512 
     48 C48       -78.8328   31.6858  -74.9126 C.3       11 UNK         0.0225 
     49 N         -77.0277   27.0335  -74.9654 N.am      5 UNK        -0.4615 
     50 C         -76.0759   26.5207  -74.1738 C.2       4 UNK         0.5053 
     51 O         -75.0100   27.0777  -73.9104 O.2       4 UNK        -0.5105 
     52 CA        -76.3287   25.1104  -73.6154 C.3       4 UNK         0.0263 
     53 CB        -77.0276   25.1957  -72.2507 C.3       4 UNK        -0.1981 
     54 N         -77.0955   24.2648  -74.5364 N.am      4 UNK        -0.4224 
     55 C         -76.6735   23.9285  -75.7675 C.2       3 UNK         0.4895 
     56 O         -75.5705   24.2430  -76.2200 O.2       3 UNK        -0.5091 
     57 CA        -77.6480   23.1679  -76.6829 C.3       3 UNK         0.0250 
     58 CB        -77.3444   21.6624  -76.6481 C.3       3 UNK        -0.1996 
     59 N         -79.0670   23.3838  -76.3845 N.am      3 UNK        -0.4254 
     60 C         -79.7017   24.5651  -76.3608 C.2       2 UNK         0.5004 
     61 O         -79.1495   25.6450  -76.5830 O.2       2 UNK        -0.5226 
     62 CA        -81.1929   24.5562  -75.9714 C.3       2 UNK         0.0269 
     63 CB        -81.8185   23.1445  -75.8865 C.3       2 UNK        -0.1926 
     64 N         -81.4366   25.2899  -74.7219 N.am      2 UNK        -0.4687 
     65 C         -80.8308   25.0933  -73.5401 C.2       1 UNK         0.5165 
     66 O         -79.9423   24.2553  -73.3530 O.2       1 UNK        -0.5079 
     67 H67       -83.1781   26.5848  -70.2000 H         1 UNK         0.0900 
     68 H68       -83.4438   25.3524  -68.9771 H         1 UNK         0.0900 
     69 H69       -83.6256   24.9375  -70.6780 H         1 UNK         0.0900 
     70 H70       -79.8977   25.0393  -71.1676 H         1 UNK         0.2959 
     71 H71       -82.3792   26.0292  -72.4331 H         1 UNK         0.1079 
     72 H72       -79.6553   27.4535  -72.4423 H         1 UNK         0.0837 
     73 H73       -80.9257   27.8047  -73.5792 H         1 UNK         0.0837 
     74 H74       -80.4221   30.0636  -69.8274 H         1 UNK         0.0685 
     75 H75       -79.5823   28.5405  -70.0100 H         1 UNK         0.0685 
     76 H76       -80.4295   30.5534  -73.0440 H         1 UNK         0.1434 
     77 H77       -76.3651   31.6762  -73.7540 H         1 UNK         0.1329 
     78 H78       -77.4361   29.7061  -70.0955 H         1 UNK         0.1335 
     79 H79       -74.6431   30.9480  -72.3145 H         1 UNK         0.0680 
     80 H80       -75.1342   31.6091  -70.7672 H         1 UNK         0.0680 
     81 H81       -72.4637   29.3300  -69.7605 H         1 UNK         0.1032 
     82 H82       -72.6341   30.4177  -71.1013 H         1 UNK         0.1032 
     83 H83       -71.1727   28.5538  -71.7027 H         1 UNK         0.0461 
     84 H84       -73.2529   25.1144  -71.3687 H         1 UNK         0.3453 
     85 H85       -73.7948   26.3351  -72.4988 H         1 UNK         0.3453 
     86 H86       -73.4969   27.9124  -73.3619 H         1 UNK         0.2984 
     87 H87       -73.6317   29.2779  -75.5237 H         1 UNK         0.0554 
     88 H88       -72.2139   29.5490  -77.5528 H         1 UNK         0.0847 
     89 H89       -70.7539   29.4549  -76.5678 H         1 UNK         0.0847 
     90 H90       -71.8670   30.8011  -76.3713 H         1 UNK         0.0847 
     91 H91       -73.5172   27.1215  -76.0293 H         1 UNK         0.3141 
     92 H92       -70.9589   24.6848  -76.2901 H         1 UNK         0.0743 
     93 H93       -73.2496   24.8599  -74.2810 H         1 UNK         0.0784 
     94 H94       -72.4118   23.3933  -74.7785 H         1 UNK         0.0784 
     95 H95       -71.5577   24.6286  -73.8649 H         1 UNK         0.0784 
     96 H96       -73.8320   24.6206  -76.6430 H         1 UNK         0.3213 
     97 H97       -73.4981   24.7444  -80.2348 H         1 UNK         0.0855 
     98 H98       -73.2151   22.4630  -79.3406 H         1 UNK         0.0814 
     99 H99       -74.8885   22.7358  -79.7967 H         1 UNK         0.0814 
    100 H100      -74.4227   22.7512  -78.0989 H         1 UNK         0.0814 
    101 H101      -75.4617   25.1524  -77.9972 H         1 UNK         0.3105 
    102 H102      -76.9359   27.8473  -79.7656 H         1 UNK         0.0547 
    103 H103      -78.0675   25.9423  -80.9028 H         1 UNK         0.0837 
    104 H104      -78.1708   25.0713  -79.3804 H         1 UNK         0.0837 
    105 H105      -79.0544   26.5797  -79.5984 H         1 UNK         0.0837 
    106 H106      -77.8538   26.6080  -77.4197 H         1 UNK         0.3020 
    107 H107      -76.1798   28.9167  -75.2294 H         1 UNK         0.1245 
    108 H108      -78.7855   28.9515  -74.8927 H         1 UNK         0.0781 
    109 H109      -78.9201   28.5770  -76.5728 H         1 UNK         0.0781 
    110 H110      -79.9113   31.6126  -75.0616 H         1 UNK         0.0836 
    111 H111      -78.5860   32.7459  -74.9840 H         1 UNK         0.0836 
    112 H112      -77.8391   26.4649  -75.1775 H         1 UNK         0.3022 
    113 H113      -75.3629   24.6273  -73.4643 H         1 UNK         0.0747 
    114 H114      -77.2283   24.2057  -71.8412 H         1 UNK         0.0793 
    115 H115      -76.4041   25.7264  -71.5294 H         1 UNK         0.0793 
    116 H116      -77.9720   25.7340  -72.3143 H         1 UNK         0.0793 
    117 H117      -78.0300   23.9988  -74.2433 H         1 UNK         0.3047 
    118 H118      -77.4722   23.5240  -77.6990 H         1 UNK         0.0822 
    119 H119      -77.9465   21.1184  -77.3762 H         1 UNK         0.0807 
    120 H120      -77.5376   21.2343  -75.6636 H         1 UNK         0.0807 
    121 H121      -76.2981   21.4676  -76.8879 H         1 UNK         0.0807 
    122 H122      -79.6039   22.5610  -76.1514 H         1 UNK         0.2946 
    123 H123      -81.7084   25.1005  -76.7647 H         1 UNK         0.1144 
    124 H124      -81.6998   22.5996  -76.8243 H         1 UNK         0.0793 
    125 H125      -82.8897   23.2068  -75.6936 H         1 UNK         0.0793 
    126 H126      -81.3800   22.5430  -75.0892 H         1 UNK         0.0793 
    127 H127      -82.1246   26.0274  -74.7883 H         1 UNK         0.2896 
@<TRIPOS>BOND
     1    1    2 1    
     2    1   67 1    
     3    1   68 1    
     4    1   69 1    
     5    2    3 2    
     6    2    4 am   BACKBONE|DICT|INTERRES
     7    4    5 1    
     8    4   70 1    
     9    5    6 1    
    10    5   65 1    
    11    5   71 1    
    12    6    7 1    
    13    6   72 1    
    14    6   73 1    
    15    7    8 1    
    16    8    9 1    
    17    8   74 1    
    18    8   75 1    
    19    9   10 ar   
    20    9   14 ar   
    21   10   11 ar   
    22   10   76 1    
    23   11   12 ar   
    24   11   48 1    
    25   12   13 ar   
    26   12   77 1    
    27   13   14 ar   
    28   13   15 1    
    29   14   78 1    
    30   15   16 1    
    31   15   79 1    
    32   15   80 1    
    33   16   17 1    
    34   17   18 1    
    35   17   81 1    
    36   17   82 1    
    37   18   19 1    
    38   18   22 1    
    39   18   83 1    
    40   19   20 am   BACKBONE|DICT|INTERRES
    41   19   21 2    
    42   20   84 1    
    43   20   85 1    
    44   22   23 am   BACKBONE|DICT|INTERRES
    45   22   86 1    
    46   23   24 2    
    47   23   25 1    
    48   25   26 1    
    49   25   27 1    
    50   25   87 1    
    51   26   88 1    
    52   26   89 1    
    53   26   90 1    
    54   27   28 am   BACKBONE|DICT|INTERRES
    55   27   91 1    
    56   28   29 2    
    57   28   30 1    
    58   30   31 1    
    59   30   32 1    
    60   30   92 1    
    61   31   93 1    
    62   31   94 1    
    63   31   95 1    
    64   32   33 am   BACKBONE|DICT|INTERRES
    65   32   96 1    
    66   33   34 2    
    67   33   35 1    
    68   35   36 1    
    69   35   37 1    
    70   35   97 1    
    71   36   98 1    
    72   36   99 1    
    73   36  100 1    
    74   37   38 am   BACKBONE|DICT|INTERRES
    75   37  101 1    
    76   38   39 2    
    77   38   40 1    
    78   40   41 1    
    79   40   42 1    
    80   40  102 1    
    81   41  103 1    
    82   41  104 1    
    83   41  105 1    
    84   42   43 am   BACKBONE|DICT|INTERRES
    85   42  106 1    
    86   43   44 2    
    87   43   45 1    
    88   45   46 1    
    89   45   49 1    
    90   45  107 1    
    91   46   47 1    
    92   46  108 1    
    93   46  109 1    
    94   47   48 1    
    95   48  110 1    
    96   48  111 1    
    97   49   50 am   BACKBONE|DICT|INTERRES
    98   49  112 1    
    99   50   51 2    
   100   50   52 1    
   101   52   53 1    
   102   52   54 1    
   103   52  113 1    
   104   53  114 1    
   105   53  115 1    
   106   53  116 1    
   107   54   55 am   BACKBONE|DICT|INTERRES
   108   54  117 1    
   109   55   56 2    
   110   55   57 1    
   111   57   58 1    
   112   57   59 1    
   113   57  118 1    
   114   58  119 1    
   115   58  120 1    
   116   58  121 1    
   117   59   60 am   BACKBONE|DICT|INTERRES
   118   59  122 1    
   119   60   61 2    
   120   60   62 1    
   121   62   63 1    
   122   62   64 1    
   123   62  123 1    
   124   63  124 1    
   125   63  125 1    
   126   63  126 1    
   127   64   65 am   BACKBONE|DICT|INTERRES
   128   64  127 1    
   129   65   66 2    
@<TRIPOS>SUBSTRUCTURE
     1 UNK         1 GROUP             0       ****    0 ROOT    
