@<TRIPOS>MOLECULE
3R135
127   129    1
SMALL
USER_CHARGES


@<TRIPOS>ATOM
      1 CA        -83.1751   22.2943  -73.2845 C.3       0 UNK        -0.1998 
      2 C         -82.1676   23.4320  -73.2588 C.2       0 UNK         0.4909 
      3 O         -81.3279   23.5235  -74.1566 O.2       0 UNK        -0.5240 
      4 N         -82.2597   24.3215  -72.2578 N.am      1 UNK        -0.4739 
      5 CA        -81.3725   25.4667  -71.9683 C.3       1 UNK         0.0864 
      6 C6        -79.8966   25.0255  -71.7572 C.3       11 UNK        -0.0881 
      7 S7        -79.1022   25.8141  -70.3198 S.3       11 UNK        -0.2682 
      8 C8        -77.3704   25.9072  -70.8800 C.3       11 UNK         0.0289 
      9 C9        -76.9661   27.3293  -71.2401 C.ar      11 UNK        -0.0687 
     10 C10       -77.5921   28.0028  -72.2940 C.ar      11 UNK        -0.0823 
     11 C11       -77.2188   29.3096  -72.6209 C.ar      11 UNK        -0.0830 
     12 C12       -76.2045   29.9388  -71.8926 C.ar      11 UNK        -0.1021 
     13 C13       -75.5590   29.2710  -70.8478 C.ar      11 UNK        -0.0753 
     14 C14       -75.9508   27.9696  -70.5221 C.ar      11 UNK        -0.0933 
     15 C15       -74.4444   29.9495  -70.0637 C.3       11 UNK         0.0166 
     16 S16       -72.8071   29.5156  -70.7359 S.3       11 UNK        -0.2615 
     17 C17       -72.1732   31.1425  -71.2779 C.3       11 UNK        -0.0865 
     18 CA        -72.7692   31.6283  -72.6311 C.3       10 UNK         0.0862 
     19 C         -72.3294   33.0782  -73.0019 C.2       10 UNK         0.5551 
     20 N         -72.2495   33.4348  -74.2782 N.am      10 UNK        -0.7319 
     21 O         -72.0889   33.9043  -72.1244 O.2       10 UNK        -0.5018 
     22 N         -72.6323   30.6358  -73.7115 N.am      10 UNK        -0.4509 
     23 C         -71.4994   30.2380  -74.3006 C.2       10 UNK         0.4899 
     24 O         -70.3807   30.6692  -74.0156 O.2       10 UNK        -0.4839 
     25 CA        -71.6568   29.1590  -75.3889 C.3       9 UNK         0.0222 
     26 CB        -70.4565   29.1169  -76.3521 C.3       9 UNK        -0.1966 
     27 N         -71.8497   27.8269  -74.8154 N.am      9 UNK        -0.4218 
     28 C         -72.9384   27.4052  -74.1606 C.2       9 UNK         0.5020 
     29 O         -73.9396   28.0963  -73.9738 O.2       9 UNK        -0.5274 
     30 CA        -72.9124   25.9435  -73.6874 C.3       8 UNK         0.0270 
     31 CB        -73.9847   25.6516  -72.6219 C.3       8 UNK        -0.1976 
     32 N         -73.1199   25.0518  -74.8259 N.am      8 UNK        -0.4313 
     33 C         -72.1862   24.7031  -75.7203 C.2       8 UNK         0.5041 
     34 O         -71.0070   25.0537  -75.6471 O.2       8 UNK        -0.5577 
     35 CA        -72.6542   23.8485  -76.9060 C.3       7 UNK         0.0284 
     36 CB        -73.0015   22.4198  -76.4533 C.3       7 UNK        -0.1958 
     37 N         -73.8221   24.4600  -77.5411 N.am      7 UNK        -0.4454 
     38 C         -73.7868   25.2097  -78.6521 C.2       7 UNK         0.5089 
     39 O         -72.7687   25.4037  -79.3172 O.2       7 UNK        -0.5125 
     40 CA        -75.1105   25.8581  -79.1074 C.3       6 UNK         0.0408 
     41 CB        -75.8117   24.9692  -80.1462 C.3       6 UNK        -0.1791 
     42 N         -76.0350   26.1268  -78.0029 N.am      6 UNK        -0.4762 
     43 C         -75.8128   27.0203  -77.0240 C.2       6 UNK         0.5007 
     44 O         -74.8594   27.7975  -77.0387 O.2       6 UNK        -0.5032 
     45 CA        -76.7910   27.0196  -75.8207 C.3       5 UNK         0.0783 
     46 C46       -77.7866   28.2056  -75.8949 C.3       11 UNK        -0.0857 
     47 S47       -77.0846   29.7974  -75.3451 S.3       11 UNK        -0.2512 
     48 C48       -77.9186   30.0548  -73.7468 C.3       11 UNK         0.0225 
     49 N         -77.5174   25.7484  -75.6776 N.am      5 UNK        -0.4615 
     50 C         -76.9690   24.5411  -75.4774 C.2       4 UNK         0.5053 
     51 O         -75.7651   24.3680  -75.2954 O.2       4 UNK        -0.5105 
     52 CA        -77.8889   23.3099  -75.5693 C.3       4 UNK         0.0263 
     53 CB        -78.0161   22.6063  -74.2103 C.3       4 UNK        -0.1981 
     54 N         -79.2226   23.6030  -76.1065 N.am      4 UNK        -0.4224 
     55 C         -79.4703   23.9124  -77.3894 C.2       3 UNK         0.4895 
     56 O         -78.5957   23.9893  -78.2530 O.2       3 UNK        -0.5091 
     57 CA        -80.9259   24.2478  -77.7512 C.3       3 UNK         0.0250 
     58 CB        -81.7676   22.9666  -77.8678 C.3       3 UNK        -0.1996 
     59 N         -81.5343   25.1472  -76.7689 N.am      3 UNK        -0.4254 
     60 C         -81.2190   26.4443  -76.6271 C.2       2 UNK         0.5004 
     61 O         -80.4523   27.0449  -77.3771 O.2       2 UNK        -0.5226 
     62 CA        -81.8025   27.1735  -75.4102 C.3       2 UNK         0.0269 
     63 CB        -83.2487   27.6286  -75.6663 C.3       2 UNK        -0.1926 
     64 N         -81.7470   26.2925  -74.2477 N.am      2 UNK        -0.4687 
     65 C         -81.4756   26.6304  -72.9860 C.2       1 UNK         0.5165 
     66 O         -81.3077   27.7917  -72.6141 O.2       1 UNK        -0.5079 
     67 H67       -83.7559   22.3288  -74.2057 H         1 UNK         0.0900 
     68 H68       -82.6562   21.3371  -73.2447 H         1 UNK         0.0900 
     69 H69       -83.8664   22.3418  -72.4434 H         1 UNK         0.0900 
     70 H70       -83.0073   24.2022  -71.5874 H         1 UNK         0.2959 
     71 H71       -81.7517   25.8685  -71.0270 H         1 UNK         0.1079 
     72 H72       -79.8403   23.9515  -71.5729 H         1 UNK         0.0837 
     73 H73       -79.3046   25.1983  -72.6574 H         1 UNK         0.0837 
     74 H74       -76.7364   25.5230  -70.0795 H         1 UNK         0.0685 
     75 H75       -77.1985   25.2514  -71.7346 H         1 UNK         0.0685 
     76 H76       -78.3791   27.5142  -72.8502 H         1 UNK         0.1434 
     77 H77       -75.9195   30.9497  -72.1438 H         1 UNK         0.1329 
     78 H78       -75.4540   27.4526  -69.7127 H         1 UNK         0.1335 
     79 H79       -74.5881   31.0309  -70.0657 H         1 UNK         0.0680 
     80 H80       -74.4877   29.6420  -69.0178 H         1 UNK         0.0680 
     81 H81       -72.3679   31.8666  -70.4847 H         1 UNK         0.1032 
     82 H82       -71.0869   31.0739  -71.3537 H         1 UNK         0.1032 
     83 H83       -73.8428   31.7231  -72.4816 H         1 UNK         0.0461 
     84 H84       -71.9753   34.3754  -74.5141 H         1 UNK         0.3453 
     85 H85       -72.4561   32.7691  -75.0053 H         1 UNK         0.3453 
     86 H86       -73.4730   30.1149  -73.9408 H         1 UNK         0.2984 
     87 H87       -72.5436   29.4057  -75.9771 H         1 UNK         0.0554 
     88 H88       -70.2852   30.0946  -76.8045 H         1 UNK         0.0847 
     89 H89       -70.6259   28.4102  -77.1649 H         1 UNK         0.0847 
     90 H90       -69.5365   28.8275  -75.8425 H         1 UNK         0.0847 
     91 H91       -71.1116   27.1503  -74.9704 H         1 UNK         0.3141 
     92 H92       -71.9347   25.7446  -73.2433 H         1 UNK         0.0743 
     93 H93       -74.9916   25.8213  -73.0046 H         1 UNK         0.0784 
     94 H94       -73.9287   24.6212  -72.2713 H         1 UNK         0.0784 
     95 H95       -73.8529   26.3002  -71.7550 H         1 UNK         0.0784 
     96 H96       -74.0811   24.7467  -74.9780 H         1 UNK         0.3213 
     97 H97       -71.8284   23.7825  -77.6179 H         1 UNK         0.0855 
     98 H98       -73.8312   22.4023  -75.7456 H         1 UNK         0.0814 
     99 H99       -72.1472   21.9478  -75.9662 H         1 UNK         0.0814 
    100 H100      -73.2757   21.7939  -77.3025 H         1 UNK         0.0814 
    101 H101      -74.6948   24.3979  -77.0299 H         1 UNK         0.3105 
    102 H102      -74.8667   26.8106  -79.5824 H         1 UNK         0.0547 
    103 H103      -76.7153   25.4430  -80.5299 H         1 UNK         0.0837 
    104 H104      -75.1598   24.7766  -80.9994 H         1 UNK         0.0837 
    105 H105      -76.0939   24.0027  -79.7263 H         1 UNK         0.0837 
    106 H106      -76.8561   25.5364  -77.9461 H         1 UNK         0.3020 
    107 H107      -76.1836   27.1325  -74.9199 H         1 UNK         0.1245 
    108 H108      -78.6636   27.9962  -75.2823 H         1 UNK         0.0781 
    109 H109      -78.1691   28.3318  -76.9095 H         1 UNK         0.0781 
    110 H110      -78.9678   29.7615  -73.8097 H         1 UNK         0.0836 
    111 H111      -77.9236   31.1239  -73.5291 H         1 UNK         0.0836 
    112 H112      -78.5084   25.7838  -75.8628 H         1 UNK         0.3022 
    113 H113      -77.4023   22.6123  -76.2544 H         1 UNK         0.0747 
    114 H114      -78.5189   23.2302  -73.4759 H         1 UNK         0.0793 
    115 H115      -78.5805   21.6778  -74.2981 H         1 UNK         0.0793 
    116 H116      -77.0352   22.3520  -73.8061 H         1 UNK         0.0793 
    117 H117      -79.9998   23.5561  -75.4491 H         1 UNK         0.3047 
    118 H118      -80.9241   24.7468  -78.7230 H         1 UNK         0.0822 
    119 H119      -81.3356   22.2821  -78.5992 H         1 UNK         0.0807 
    120 H120      -82.7834   23.1889  -78.1950 H         1 UNK         0.0807 
    121 H121      -81.8304   22.4327  -76.9184 H         1 UNK         0.0807 
    122 H122      -82.1831   24.7242  -76.1219 H         1 UNK         0.2946 
    123 H123      -81.1847   28.0560  -75.2271 H         1 UNK         0.1144 
    124 H124      -83.6385   28.1954  -74.8206 H         1 UNK         0.0793 
    125 H125      -83.9162   26.7834  -75.8380 H         1 UNK         0.0793 
    126 H126      -83.3045   28.2751  -76.5432 H         1 UNK         0.0793 
    127 H127      -81.7724   25.2930  -74.4270 H         1 UNK         0.2896 
@<TRIPOS>BOND
     1    1    2 1    
     2    1   67 1    
     3    1   68 1    
     4    1   69 1    
     5    2    3 2    
     6    2    4 am   BACKBONE|DICT|INTERRES
     7    4    5 1    
     8    4   70 1    
     9    5    6 1    
    10    5   65 1    
    11    5   71 1    
    12    6    7 1    
    13    6   72 1    
    14    6   73 1    
    15    7    8 1    
    16    8    9 1    
    17    8   74 1    
    18    8   75 1    
    19    9   10 ar   
    20    9   14 ar   
    21   10   11 ar   
    22   10   76 1    
    23   11   12 ar   
    24   11   48 1    
    25   12   13 ar   
    26   12   77 1    
    27   13   14 ar   
    28   13   15 1    
    29   14   78 1    
    30   15   16 1    
    31   15   79 1    
    32   15   80 1    
    33   16   17 1    
    34   17   18 1    
    35   17   81 1    
    36   17   82 1    
    37   18   19 1    
    38   18   22 1    
    39   18   83 1    
    40   19   20 am   BACKBONE|DICT|INTERRES
    41   19   21 2    
    42   20   84 1    
    43   20   85 1    
    44   22   23 am   BACKBONE|DICT|INTERRES
    45   22   86 1    
    46   23   24 2    
    47   23   25 1    
    48   25   26 1    
    49   25   27 1    
    50   25   87 1    
    51   26   88 1    
    52   26   89 1    
    53   26   90 1    
    54   27   28 am   BACKBONE|DICT|INTERRES
    55   27   91 1    
    56   28   29 2    
    57   28   30 1    
    58   30   31 1    
    59   30   32 1    
    60   30   92 1    
    61   31   93 1    
    62   31   94 1    
    63   31   95 1    
    64   32   33 am   BACKBONE|DICT|INTERRES
    65   32   96 1    
    66   33   34 2    
    67   33   35 1    
    68   35   36 1    
    69   35   37 1    
    70   35   97 1    
    71   36   98 1    
    72   36   99 1    
    73   36  100 1    
    74   37   38 am   BACKBONE|DICT|INTERRES
    75   37  101 1    
    76   38   39 2    
    77   38   40 1    
    78   40   41 1    
    79   40   42 1    
    80   40  102 1    
    81   41  103 1    
    82   41  104 1    
    83   41  105 1    
    84   42   43 am   BACKBONE|DICT|INTERRES
    85   42  106 1    
    86   43   44 2    
    87   43   45 1    
    88   45   46 1    
    89   45   49 1    
    90   45  107 1    
    91   46   47 1    
    92   46  108 1    
    93   46  109 1    
    94   47   48 1    
    95   48  110 1    
    96   48  111 1    
    97   49   50 am   BACKBONE|DICT|INTERRES
    98   49  112 1    
    99   50   51 2    
   100   50   52 1    
   101   52   53 1    
   102   52   54 1    
   103   52  113 1    
   104   53  114 1    
   105   53  115 1    
   106   53  116 1    
   107   54   55 am   BACKBONE|DICT|INTERRES
   108   54  117 1    
   109   55   56 2    
   110   55   57 1    
   111   57   58 1    
   112   57   59 1    
   113   57  118 1    
   114   58  119 1    
   115   58  120 1    
   116   58  121 1    
   117   59   60 am   BACKBONE|DICT|INTERRES
   118   59  122 1    
   119   60   61 2    
   120   60   62 1    
   121   62   63 1    
   122   62   64 1    
   123   62  123 1    
   124   63  124 1    
   125   63  125 1    
   126   63  126 1    
   127   64   65 am   BACKBONE|DICT|INTERRES
   128   64  127 1    
   129   65   66 2    
@<TRIPOS>SUBSTRUCTURE
     1 UNK         1 GROUP             0       ****    0 ROOT    
