@<TRIPOS>MOLECULE
3R135
127   129    1
SMALL
USER_CHARGES


@<TRIPOS>ATOM
      1 CA        -84.2535   30.3527  -75.2168 C.3       0 UNK        -0.1998 
      2 C         -83.1476   29.4898  -75.8054 C.2       0 UNK         0.4909 
      3 O         -83.0430   29.3758  -77.0269 O.2       0 UNK        -0.5240 
      4 N         -82.3211   28.8795  -74.9461 N.am      1 UNK        -0.4739 
      5 CA        -81.2159   27.9921  -75.3314 C.3       1 UNK         0.0864 
      6 C6        -80.1859   27.8308  -74.1849 C.3       11 UNK        -0.0881 
      7 S7        -80.8970   27.1885  -72.6278 S.3       11 UNK        -0.2682 
      8 C8        -80.0096   28.1785  -71.3820 C.3       11 UNK         0.0289 
      9 C9        -78.5171   27.8729  -71.3580 C.ar      11 UNK        -0.0687 
     10 C10       -78.0677   26.6044  -70.9886 C.ar      11 UNK        -0.0823 
     11 C11       -76.7016   26.3113  -70.9611 C.ar      11 UNK        -0.0830 
     12 C12       -75.7763   27.3097  -71.2840 C.ar      11 UNK        -0.1021 
     13 C13       -76.2092   28.5958  -71.6387 C.ar      11 UNK        -0.0753 
     14 C14       -77.5829   28.8616  -71.6778 C.ar      11 UNK        -0.0933 
     15 C15       -75.2522   29.7459  -71.9603 C.3       11 UNK         0.0166 
     16 S16       -73.4994   29.3020  -72.2340 S.3       11 UNK        -0.2615 
     17 C17       -72.8565   30.9381  -72.7199 C.3       11 UNK        -0.0865 
     18 CA        -72.8694   31.1390  -74.2661 C.3       10 UNK         0.0862 
     19 C         -72.9095   32.6413  -74.6927 C.2       10 UNK         0.5551 
     20 N         -72.3768   33.0118  -75.8513 N.am      10 UNK        -0.7319 
     21 O         -73.4619   33.4820  -73.9871 O.2       10 UNK        -0.5018 
     22 N         -71.8503   30.3312  -74.9668 N.am      10 UNK        -0.4509 
     23 C         -70.5223   30.5068  -74.8814 C.2       10 UNK         0.4899 
     24 O         -69.9892   31.3173  -74.1210 O.2       10 UNK        -0.4839 
     25 CA        -69.6437   29.6771  -75.8406 C.3       9 UNK         0.0222 
     26 CB        -68.1356   29.7963  -75.5303 C.3       9 UNK        -0.1966 
     27 N         -70.0350   28.2686  -75.9448 N.am      9 UNK        -0.4218 
     28 C         -70.0814   27.3500  -74.9700 C.2       9 UNK         0.5020 
     29 O         -69.8214   27.5834  -73.7882 O.2       9 UNK        -0.5274 
     30 CA        -70.4737   25.9238  -75.4105 C.3       8 UNK         0.0270 
     31 CB        -70.5572   24.9368  -74.2306 C.3       8 UNK        -0.1976 
     32 N         -71.7421   25.9121  -76.1468 N.am      8 UNK        -0.4313 
     33 C         -71.8845   26.2465  -77.4398 C.2       8 UNK         0.5041 
     34 O         -70.9351   26.5690  -78.1557 O.2       8 UNK        -0.5577 
     35 CA        -73.3066   26.2841  -78.0336 C.3       7 UNK         0.0284 
     36 CB        -73.6000   24.9851  -78.8001 C.3       7 UNK        -0.1958 
     37 N         -74.3550   26.5045  -77.0361 N.am      7 UNK        -0.4454 
     38 C         -74.4619   27.5983  -76.2652 C.2       7 UNK         0.5089 
     39 O         -73.7587   28.6001  -76.4057 O.2       7 UNK        -0.5125 
     40 CA        -75.4803   27.5496  -75.1089 C.3       6 UNK         0.0408 
     41 CB        -76.7376   28.3578  -75.4567 C.3       6 UNK        -0.1791 
     42 N         -75.8580   26.1918  -74.6962 N.am      6 UNK        -0.4762 
     43 C         -75.0023   25.2575  -74.2511 C.2       6 UNK         0.5007 
     44 O         -73.8152   25.4888  -74.0251 O.2       6 UNK        -0.5032 
     45 CA        -75.5024   23.8004  -74.1479 C.3       5 UNK         0.0783 
     46 C46       -75.4316   23.2417  -72.7041 C.3       11 UNK        -0.0857 
     47 S47       -76.8719   23.6280  -71.6514 S.3       11 UNK        -0.2512 
     48 C48       -76.2378   24.9249  -70.5385 C.3       11 UNK         0.0225 
     49 N         -76.7950   23.5474  -74.7986 N.am      5 UNK        -0.4615 
     50 C         -77.0501   23.6630  -76.1078 C.2       4 UNK         0.5053 
     51 O         -76.2026   24.0303  -76.9225 O.2       4 UNK        -0.5105 
     52 CA        -78.4812   23.3814  -76.6037 C.3       4 UNK         0.0263 
     53 CB        -78.5452   22.0550  -77.3860 C.3       4 UNK        -0.1981 
     54 N         -79.5379   23.4550  -75.5812 N.am      4 UNK        -0.4224 
     55 C         -79.7721   22.6289  -74.5470 C.2       3 UNK         0.4895 
     56 O         -79.0517   21.6717  -74.2658 O.2       3 UNK        -0.5091 
     57 CA        -80.9877   22.9252  -73.6445 C.3       3 UNK         0.0250 
     58 CB        -80.5217   23.4151  -72.2640 C.3       3 UNK        -0.1996 
     59 N         -81.9137   23.9109  -74.2065 N.am      3 UNK        -0.4254 
     60 C         -82.7460   23.6900  -75.2347 C.2       2 UNK         0.5004 
     61 O         -82.8996   22.5894  -75.7645 O.2       2 UNK        -0.5226 
     62 CA        -83.5151   24.9059  -75.7884 C.3       2 UNK         0.0269 
     63 CB        -84.9698   24.8950  -75.2916 C.3       2 UNK        -0.1926 
     64 N         -82.9088   26.2032  -75.4623 N.am      2 UNK        -0.4687 
     65 C         -81.6888   26.6144  -75.8429 C.2       1 UNK         0.5165 
     66 O         -80.9261   25.9301  -76.5268 O.2       1 UNK        -0.5079 
     67 H67       -84.1573   31.3786  -75.5713 H         1 UNK         0.0900 
     68 H68       -84.2239   30.3665  -74.1274 H         1 UNK         0.0900 
     69 H69       -85.2281   29.9753  -75.5251 H         1 UNK         0.0900 
     70 H70       -82.4481   29.0037  -73.9510 H         1 UNK         0.2959 
     71 H71       -80.6967   28.4595  -76.1716 H         1 UNK         0.1079 
     72 H72       -79.3710   27.1694  -74.4850 H         1 UNK         0.0837 
     73 H73       -79.7235   28.7993  -73.9897 H         1 UNK         0.0837 
     74 H74       -80.4304   27.9635  -70.3989 H         1 UNK         0.0685 
     75 H75       -80.1918   29.2381  -71.5678 H         1 UNK         0.0685 
     76 H76       -78.7859   25.8391  -70.7276 H         1 UNK         0.1434 
     77 H77       -74.7213   27.0792  -71.2463 H         1 UNK         0.1329 
     78 H78       -77.9265   29.8507  -71.9491 H         1 UNK         0.1335 
     79 H79       -75.6132   30.2581  -72.8538 H         1 UNK         0.0680 
     80 H80       -75.3029   30.4685  -71.1446 H         1 UNK         0.0680 
     81 H81       -73.4553   31.6950  -72.2109 H         1 UNK         0.1032 
     82 H82       -71.8501   31.0549  -72.3173 H         1 UNK         0.1032 
     83 H83       -73.8245   30.7571  -74.6282 H         1 UNK         0.0461 
     84 H84       -72.4169   33.9805  -76.1265 H         1 UNK         0.3453 
     85 H85       -71.9416   32.3321  -76.4537 H         1 UNK         0.3453 
     86 H86       -72.2264   29.6401  -75.6084 H         1 UNK         0.2984 
     87 H87       -69.8038   30.1033  -76.8320 H         1 UNK         0.0554 
     88 H88       -67.5363   29.2347  -76.2468 H         1 UNK         0.0847 
     89 H89       -67.8980   29.4273  -74.5318 H         1 UNK         0.0847 
     90 H90       -67.8055   30.8347  -75.5795 H         1 UNK         0.0847 
     91 H91       -70.2811   27.9421  -76.8760 H         1 UNK         0.3141 
     92 H92       -69.6832   25.5670  -76.0743 H         1 UNK         0.0743 
     93 H93       -69.5891   24.8385  -73.7378 H         1 UNK         0.0784 
     94 H94       -71.2708   25.2673  -73.4754 H         1 UNK         0.0784 
     95 H95       -70.8542   23.9418  -74.5621 H         1 UNK         0.0784 
     96 H96       -72.5717   25.7340  -75.5882 H         1 UNK         0.3213 
     97 H97       -73.3426   27.1163  -78.7398 H         1 UNK         0.0855 
     98 H98       -73.5921   24.1169  -78.1398 H         1 UNK         0.0814 
     99 H99       -72.8540   24.8121  -79.5771 H         1 UNK         0.0814 
    100 H100      -74.5738   25.0235  -79.2890 H         1 UNK         0.0814 
    101 H101      -74.9929   25.7317  -76.8732 H         1 UNK         0.3105 
    102 H102      -75.0000   28.0230  -74.2555 H         1 UNK         0.0547 
    103 H103      -77.3284   27.8779  -76.2376 H         1 UNK         0.0837 
    104 H104      -77.3674   28.4885  -74.5788 H         1 UNK         0.0837 
    105 H105      -76.4761   29.3565  -75.8097 H         1 UNK         0.0837 
    106 H106      -76.8149   25.9140  -74.8533 H         1 UNK         0.3020 
    107 H107      -74.7698   23.2325  -74.7266 H         1 UNK         0.1245 
    108 H108      -74.5051   23.5373  -72.2084 H         1 UNK         0.0781 
    109 H109      -75.3807   22.1532  -72.7595 H         1 UNK         0.0781 
    110 H110      -75.1504   24.8753  -70.4692 H         1 UNK         0.0836 
    111 H111      -76.6110   24.7279  -69.5325 H         1 UNK         0.0836 
    112 H112      -77.5300   23.1919  -74.1997 H         1 UNK         0.3022 
    113 H113      -78.7126   24.1826  -77.3075 H         1 UNK         0.0747 
    114 H114      -79.5411   21.8838  -77.7949 H         1 UNK         0.0793 
    115 H115      -77.8479   22.0650  -78.2249 H         1 UNK         0.0793 
    116 H116      -78.2857   21.1991  -76.7625 H         1 UNK         0.0793 
    117 H117      -80.1759   24.2343  -75.7107 H         1 UNK         0.3047 
    118 H118      -81.5290   21.9861  -73.5105 H         1 UNK         0.0822 
    119 H119      -79.8992   22.6654  -71.7736 H         1 UNK         0.0807 
    120 H120      -81.3654   23.6156  -71.6035 H         1 UNK         0.0807 
    121 H121      -79.9291   24.3271  -72.3408 H         1 UNK         0.0807 
    122 H122      -81.8664   24.8460  -73.8260 H         1 UNK         0.2946 
    123 H123      -83.5206   24.8087  -76.8764 H         1 UNK         0.1144 
    124 H124      -85.4620   23.9546  -75.5440 H         1 UNK         0.0793 
    125 H125      -85.5521   25.6951  -75.7491 H         1 UNK         0.0793 
    126 H126      -85.0274   25.0126  -74.2087 H         1 UNK         0.0793 
    127 H127      -83.4551   26.8299  -74.8890 H         1 UNK         0.2896 
@<TRIPOS>BOND
     1    1    2 1    
     2    1   67 1    
     3    1   68 1    
     4    1   69 1    
     5    2    3 2    
     6    2    4 am   BACKBONE|DICT|INTERRES
     7    4    5 1    
     8    4   70 1    
     9    5    6 1    
    10    5   65 1    
    11    5   71 1    
    12    6    7 1    
    13    6   72 1    
    14    6   73 1    
    15    7    8 1    
    16    8    9 1    
    17    8   74 1    
    18    8   75 1    
    19    9   10 ar   
    20    9   14 ar   
    21   10   11 ar   
    22   10   76 1    
    23   11   12 ar   
    24   11   48 1    
    25   12   13 ar   
    26   12   77 1    
    27   13   14 ar   
    28   13   15 1    
    29   14   78 1    
    30   15   16 1    
    31   15   79 1    
    32   15   80 1    
    33   16   17 1    
    34   17   18 1    
    35   17   81 1    
    36   17   82 1    
    37   18   19 1    
    38   18   22 1    
    39   18   83 1    
    40   19   20 am   BACKBONE|DICT|INTERRES
    41   19   21 2    
    42   20   84 1    
    43   20   85 1    
    44   22   23 am   BACKBONE|DICT|INTERRES
    45   22   86 1    
    46   23   24 2    
    47   23   25 1    
    48   25   26 1    
    49   25   27 1    
    50   25   87 1    
    51   26   88 1    
    52   26   89 1    
    53   26   90 1    
    54   27   28 am   BACKBONE|DICT|INTERRES
    55   27   91 1    
    56   28   29 2    
    57   28   30 1    
    58   30   31 1    
    59   30   32 1    
    60   30   92 1    
    61   31   93 1    
    62   31   94 1    
    63   31   95 1    
    64   32   33 am   BACKBONE|DICT|INTERRES
    65   32   96 1    
    66   33   34 2    
    67   33   35 1    
    68   35   36 1    
    69   35   37 1    
    70   35   97 1    
    71   36   98 1    
    72   36   99 1    
    73   36  100 1    
    74   37   38 am   BACKBONE|DICT|INTERRES
    75   37  101 1    
    76   38   39 2    
    77   38   40 1    
    78   40   41 1    
    79   40   42 1    
    80   40  102 1    
    81   41  103 1    
    82   41  104 1    
    83   41  105 1    
    84   42   43 am   BACKBONE|DICT|INTERRES
    85   42  106 1    
    86   43   44 2    
    87   43   45 1    
    88   45   46 1    
    89   45   49 1    
    90   45  107 1    
    91   46   47 1    
    92   46  108 1    
    93   46  109 1    
    94   47   48 1    
    95   48  110 1    
    96   48  111 1    
    97   49   50 am   BACKBONE|DICT|INTERRES
    98   49  112 1    
    99   50   51 2    
   100   50   52 1    
   101   52   53 1    
   102   52   54 1    
   103   52  113 1    
   104   53  114 1    
   105   53  115 1    
   106   53  116 1    
   107   54   55 am   BACKBONE|DICT|INTERRES
   108   54  117 1    
   109   55   56 2    
   110   55   57 1    
   111   57   58 1    
   112   57   59 1    
   113   57  118 1    
   114   58  119 1    
   115   58  120 1    
   116   58  121 1    
   117   59   60 am   BACKBONE|DICT|INTERRES
   118   59  122 1    
   119   60   61 2    
   120   60   62 1    
   121   62   63 1    
   122   62   64 1    
   123   62  123 1    
   124   63  124 1    
   125   63  125 1    
   126   63  126 1    
   127   64   65 am   BACKBONE|DICT|INTERRES
   128   64  127 1    
   129   65   66 2    
@<TRIPOS>SUBSTRUCTURE
     1 UNK         1 GROUP             0       ****    0 ROOT    
