@<TRIPOS>MOLECULE
3R135
127   129    1
SMALL
USER_CHARGES


@<TRIPOS>ATOM
      1 CA        -80.4814   25.4403  -69.7974 C.3       0 UNK        -0.1998 
      2 C         -81.7233   25.6469  -70.6498 C.2       0 UNK         0.4909 
      3 O         -82.6566   24.8475  -70.5740 O.2       0 UNK        -0.5240 
      4 N         -81.7468   26.7185  -71.4537 N.am      1 UNK        -0.4739 
      5 CA        -82.8497   27.0579  -72.3625 C.3       1 UNK         0.0864 
      6 C6        -82.8052   28.5437  -72.8066 C.3       11 UNK        -0.0881 
      7 S7        -81.2366   29.0273  -73.6096 S.3       11 UNK        -0.2682 
      8 C8        -80.4081   29.9671  -72.2887 C.3       11 UNK         0.0289 
      9 C9        -78.9025   29.8119  -72.4133 C.ar      11 UNK        -0.0687 
     10 C10       -78.2447   28.8013  -71.7064 C.ar      11 UNK        -0.0823 
     11 C11       -76.8761   28.5804  -71.8885 C.ar      11 UNK        -0.0830 
     12 C12       -76.1644   29.4118  -72.7572 C.ar      11 UNK        -0.1021 
     13 C13       -76.7972   30.4644  -73.4278 C.ar      11 UNK        -0.0753 
     14 C14       -78.1723   30.6511  -73.2604 C.ar      11 UNK        -0.0933 
     15 C15       -76.0016   31.3799  -74.3512 C.3       11 UNK         0.0166 
     16 S16       -74.4985   32.0169  -73.5378 S.3       11 UNK        -0.2615 
     17 C17       -73.2956   32.0675  -74.9123 C.3       11 UNK        -0.0865 
     18 CA        -72.8573   30.6749  -75.4664 C.3       10 UNK         0.0862 
     19 C         -71.7729   30.7991  -76.5814 C.2       10 UNK         0.5551 
     20 N         -70.8006   29.8983  -76.6761 N.am      10 UNK        -0.7319 
     21 O         -71.8231   31.7216  -77.3917 O.2       10 UNK        -0.5018 
     22 N         -72.5527   29.6709  -74.4316 N.am      10 UNK        -0.4509 
     23 C         -71.5963   29.7632  -73.4994 C.2       10 UNK         0.4899 
     24 O         -70.8852   30.7538  -73.3286 O.2       10 UNK        -0.4839 
     25 CA        -71.3739   28.5241  -72.6144 C.3       9 UNK         0.0222 
     26 CB        -72.1751   28.6484  -71.3085 C.3       9 UNK        -0.1966 
     27 N         -71.6892   27.2446  -73.2634 N.am      9 UNK        -0.4218 
     28 C         -71.0774   26.7527  -74.3512 C.2       9 UNK         0.5020 
     29 O         -70.2383   27.3771  -75.0026 O.2       9 UNK        -0.5274 
     30 CA        -71.4515   25.3261  -74.7834 C.3       8 UNK         0.0270 
     31 CB        -71.9738   24.4411  -73.6322 C.3       8 UNK        -0.1976 
     32 N         -72.4571   25.3882  -75.8392 N.am      8 UNK        -0.4313 
     33 C         -72.2065   25.3064  -77.1530 C.2       8 UNK         0.5041 
     34 O         -71.0832   25.1234  -77.6253 O.2       8 UNK        -0.5577 
     35 CA        -73.4031   25.4210  -78.1187 C.3       7 UNK         0.0284 
     36 CB        -73.7703   24.0363  -78.6773 C.3       7 UNK        -0.1958 
     37 N         -74.5957   26.0220  -77.5171 N.am      7 UNK        -0.4454 
     38 C         -74.7113   27.3095  -77.1693 C.2       7 UNK         0.5089 
     39 O         -73.8492   28.1543  -77.3995 O.2       7 UNK        -0.5125 
     40 CA        -75.9762   27.7140  -76.3903 C.3       6 UNK         0.0408 
     41 CB        -77.0953   28.1517  -77.3455 C.3       6 UNK        -0.1791 
     42 N         -76.4728   26.6636  -75.4968 N.am      6 UNK        -0.4762 
     43 C         -75.7955   26.1727  -74.4474 C.2       6 UNK         0.5007 
     44 O         -74.6661   26.5473  -74.1274 O.2       6 UNK        -0.5032 
     45 CA        -76.4781   25.0343  -73.6670 C.3       5 UNK         0.0783 
     46 C46       -77.6007   25.5669  -72.7393 C.3       11 UNK        -0.0857 
     47 S47       -77.0495   25.8841  -71.0301 S.3       11 UNK        -0.2512 
     48 C48       -76.1408   27.4646  -71.1496 C.3       11 UNK         0.0225 
     49 N         -76.9871   24.0314  -74.6026 N.am      5 UNK        -0.4615 
     50 C         -76.2263   23.1380  -75.2496 C.2       4 UNK         0.5053 
     51 O         -75.0177   23.0071  -75.0608 O.2       4 UNK        -0.5105 
     52 CA        -76.9241   22.2533  -76.3002 C.3       4 UNK         0.0263 
     53 CB        -77.3622   20.9208  -75.6722 C.3       4 UNK        -0.1981 
     54 N         -78.0830   22.8975  -76.9260 N.am      4 UNK        -0.4224 
     55 C         -78.0208   23.9935  -77.6959 C.2       3 UNK         0.4895 
     56 O         -76.9684   24.5427  -78.0145 O.2       3 UNK        -0.5091 
     57 CA        -79.3538   24.6174  -78.1425 C.3       3 UNK         0.0250 
     58 CB        -79.7739   24.0602  -79.5116 C.3       3 UNK        -0.1996 
     59 N         -80.4509   24.4424  -77.1834 N.am      3 UNK        -0.4254 
     60 C         -80.4490   24.8838  -75.9177 C.2       2 UNK         0.5004 
     61 O         -79.4897   25.4509  -75.3853 O.2       2 UNK        -0.5226 
     62 CA        -81.7064   24.5792  -75.0983 C.3       2 UNK         0.0269 
     63 CB        -81.6435   23.1533  -74.5231 C.3       2 UNK        -0.1926 
     64 N         -81.8143   25.5319  -73.9978 N.am      2 UNK        -0.4687 
     65 C         -82.9514   26.0920  -73.5648 C.2       1 UNK         0.5165 
     66 O         -84.0563   25.8610  -74.0596 O.2       1 UNK        -0.5079 
     67 H67       -79.8523   26.3292  -69.7730 H         1 UNK         0.0900 
     68 H68       -79.8908   24.6125  -70.1890 H         1 UNK         0.0900 
     69 H69       -80.7633   25.2027  -68.7720 H         1 UNK         0.0900 
     70 H70       -80.9509   27.3369  -71.4936 H         1 UNK         0.2959 
     71 H71       -83.7775   26.9250  -71.8006 H         1 UNK         0.1079 
     72 H72       -82.9849   29.1889  -71.9454 H         1 UNK         0.0837 
     73 H73       -83.6232   28.7580  -73.4973 H         1 UNK         0.0837 
     74 H74       -80.6928   31.0182  -72.3561 H         1 UNK         0.0685 
     75 H75       -80.7362   29.6195  -71.3080 H         1 UNK         0.0685 
     76 H76       -78.8032   28.1640  -71.0369 H         1 UNK         0.1434 
     77 H77       -75.1065   29.2493  -72.9076 H         1 UNK         0.1329 
     78 H78       -78.6807   31.4378  -73.8009 H         1 UNK         0.1335 
     79 H79       -76.6055   32.2306  -74.6705 H         1 UNK         0.0680 
     80 H80       -75.7516   30.8286  -75.2551 H         1 UNK         0.0680 
     81 H81       -72.4217   32.6178  -74.5596 H         1 UNK         0.1032 
     82 H82       -73.7216   32.6744  -75.7134 H         1 UNK         0.1032 
     83 H83       -73.7197   30.2694  -75.9894 H         1 UNK         0.0461 
     84 H84       -70.7451   29.1194  -76.0303 H         1 UNK         0.3453 
     85 H85       -70.1159   29.9900  -77.4089 H         1 UNK         0.3453 
     86 H86       -73.0576   28.7994  -74.5073 H         1 UNK         0.2984 
     87 H87       -70.3130   28.4989  -72.3570 H         1 UNK         0.0554 
     88 H88       -71.9743   27.8160  -70.6340 H         1 UNK         0.0847 
     89 H89       -73.2478   28.6830  -71.4943 H         1 UNK         0.0847 
     90 H90       -71.9113   29.5641  -70.7772 H         1 UNK         0.0847 
     91 H91       -72.4109   26.6820  -72.8352 H         1 UNK         0.3141 
     92 H92       -70.5393   24.8594  -75.1612 H         1 UNK         0.0743 
     93 H93       -72.1127   23.4136  -73.9694 H         1 UNK         0.0784 
     94 H94       -71.2638   24.4124  -72.8045 H         1 UNK         0.0784 
     95 H95       -72.9317   24.7803  -73.2386 H         1 UNK         0.0784 
     96 H96       -73.4028   25.5921  -75.5378 H         1 UNK         0.3213 
     97 H97       -73.0889   26.0545  -78.9510 H         1 UNK         0.0855 
     98 H98       -74.1069   23.3625  -77.8885 H         1 UNK         0.0814 
     99 H99       -72.9126   23.5689  -79.1628 H         1 UNK         0.0814 
    100 H100      -74.5645   24.1056  -79.4209 H         1 UNK         0.0814 
    101 H101      -75.4044   25.4163  -77.3979 H         1 UNK         0.3105 
    102 H102      -75.7121   28.5666  -75.7638 H         1 UNK         0.0547 
    103 H103      -77.3971   27.3421  -78.0101 H         1 UNK         0.0837 
    104 H104      -77.9767   28.4867  -76.7981 H         1 UNK         0.0837 
    105 H105      -76.7676   28.9820  -77.9723 H         1 UNK         0.0837 
    106 H106      -77.3995   26.2987  -75.6836 H         1 UNK         0.3020 
    107 H107      -75.7125   24.5518  -73.0545 H         1 UNK         0.1245 
    108 H108      -78.1033   26.4426  -73.1536 H         1 UNK         0.0781 
    109 H109      -78.3890   24.8175  -72.6492 H         1 UNK         0.0781 
    110 H110      -75.9131   27.8102  -70.1406 H         1 UNK         0.0836 
    111 H111      -75.1798   27.2624  -71.6222 H         1 UNK         0.0836 
    112 H112      -77.9614   24.1269  -74.8623 H         1 UNK         0.3022 
    113 H113      -76.1955   22.0401  -77.0852 H         1 UNK         0.0747 
    114 H114      -77.7835   20.2486  -76.4199 H         1 UNK         0.0793 
    115 H115      -76.5136   20.4064  -75.2186 H         1 UNK         0.0793 
    116 H116      -78.1095   21.0676  -74.8912 H         1 UNK         0.0793 
    117 H117      -78.9909   22.5068  -76.7214 H         1 UNK         0.3047 
    118 H118      -79.1871   25.6909  -78.2493 H         1 UNK         0.0822 
    119 H119      -80.6600   24.5681  -79.8929 H         1 UNK         0.0807 
    120 H120      -79.9913   22.9923  -79.4653 H         1 UNK         0.0807 
    121 H121      -78.9818   24.1996  -80.2490 H         1 UNK         0.0807 
    122 H122      -81.2739   23.9697  -77.5298 H         1 UNK         0.2946 
    123 H123      -82.5729   24.6706  -75.7576 H         1 UNK         0.1144 
    124 H124      -82.5352   22.9244  -73.9391 H         1 UNK         0.0793 
    125 H125      -80.7775   23.0187  -73.8733 H         1 UNK         0.0793 
    126 H126      -81.5784   22.4079  -75.3166 H         1 UNK         0.0793 
    127 H127      -80.9344   25.8371  -73.6038 H         1 UNK         0.2896 
@<TRIPOS>BOND
     1    1    2 1    
     2    1   67 1    
     3    1   68 1    
     4    1   69 1    
     5    2    3 2    
     6    2    4 am   BACKBONE|DICT|INTERRES
     7    4    5 1    
     8    4   70 1    
     9    5    6 1    
    10    5   65 1    
    11    5   71 1    
    12    6    7 1    
    13    6   72 1    
    14    6   73 1    
    15    7    8 1    
    16    8    9 1    
    17    8   74 1    
    18    8   75 1    
    19    9   10 ar   
    20    9   14 ar   
    21   10   11 ar   
    22   10   76 1    
    23   11   12 ar   
    24   11   48 1    
    25   12   13 ar   
    26   12   77 1    
    27   13   14 ar   
    28   13   15 1    
    29   14   78 1    
    30   15   16 1    
    31   15   79 1    
    32   15   80 1    
    33   16   17 1    
    34   17   18 1    
    35   17   81 1    
    36   17   82 1    
    37   18   19 1    
    38   18   22 1    
    39   18   83 1    
    40   19   20 am   BACKBONE|DICT|INTERRES
    41   19   21 2    
    42   20   84 1    
    43   20   85 1    
    44   22   23 am   BACKBONE|DICT|INTERRES
    45   22   86 1    
    46   23   24 2    
    47   23   25 1    
    48   25   26 1    
    49   25   27 1    
    50   25   87 1    
    51   26   88 1    
    52   26   89 1    
    53   26   90 1    
    54   27   28 am   BACKBONE|DICT|INTERRES
    55   27   91 1    
    56   28   29 2    
    57   28   30 1    
    58   30   31 1    
    59   30   32 1    
    60   30   92 1    
    61   31   93 1    
    62   31   94 1    
    63   31   95 1    
    64   32   33 am   BACKBONE|DICT|INTERRES
    65   32   96 1    
    66   33   34 2    
    67   33   35 1    
    68   35   36 1    
    69   35   37 1    
    70   35   97 1    
    71   36   98 1    
    72   36   99 1    
    73   36  100 1    
    74   37   38 am   BACKBONE|DICT|INTERRES
    75   37  101 1    
    76   38   39 2    
    77   38   40 1    
    78   40   41 1    
    79   40   42 1    
    80   40  102 1    
    81   41  103 1    
    82   41  104 1    
    83   41  105 1    
    84   42   43 am   BACKBONE|DICT|INTERRES
    85   42  106 1    
    86   43   44 2    
    87   43   45 1    
    88   45   46 1    
    89   45   49 1    
    90   45  107 1    
    91   46   47 1    
    92   46  108 1    
    93   46  109 1    
    94   47   48 1    
    95   48  110 1    
    96   48  111 1    
    97   49   50 am   BACKBONE|DICT|INTERRES
    98   49  112 1    
    99   50   51 2    
   100   50   52 1    
   101   52   53 1    
   102   52   54 1    
   103   52  113 1    
   104   53  114 1    
   105   53  115 1    
   106   53  116 1    
   107   54   55 am   BACKBONE|DICT|INTERRES
   108   54  117 1    
   109   55   56 2    
   110   55   57 1    
   111   57   58 1    
   112   57   59 1    
   113   57  118 1    
   114   58  119 1    
   115   58  120 1    
   116   58  121 1    
   117   59   60 am   BACKBONE|DICT|INTERRES
   118   59  122 1    
   119   60   61 2    
   120   60   62 1    
   121   62   63 1    
   122   62   64 1    
   123   62  123 1    
   124   63  124 1    
   125   63  125 1    
   126   63  126 1    
   127   64   65 am   BACKBONE|DICT|INTERRES
   128   64  127 1    
   129   65   66 2    
@<TRIPOS>SUBSTRUCTURE
     1 UNK         1 GROUP             0       ****    0 ROOT    
