@<TRIPOS>MOLECULE
3R135
127   129    1
SMALL
USER_CHARGES


@<TRIPOS>ATOM
      1 CA        -80.6308   29.5316  -70.1823 C.3       0 UNK        -0.1998 
      2 C         -81.7666   28.8388  -70.9177 C.2       0 UNK         0.4909 
      3 O         -82.8541   28.6764  -70.3636 O.2       0 UNK        -0.5240 
      4 N         -81.5185   28.4307  -72.1684 N.am      1 UNK        -0.4739 
      5 CA        -82.4931   27.7770  -73.0551 C.3       1 UNK         0.0864 
      6 C6        -82.0490   27.7948  -74.5407 C.3       11 UNK        -0.0881 
      7 S7        -81.5500   29.4467  -75.1384 S.3       11 UNK        -0.2682 
      8 C8        -79.7727   29.2005  -75.4563 C.3       11 UNK         0.0289 
      9 C9        -78.9602   29.1361  -74.1701 C.ar      11 UNK        -0.0687 
     10 C10       -78.6759   27.9047  -73.5733 C.ar      11 UNK        -0.0823 
     11 C11       -77.8957   27.8345  -72.4144 C.ar      11 UNK        -0.0830 
     12 C12       -77.4237   29.0176  -71.8408 C.ar      11 UNK        -0.1021 
     13 C13       -77.6780   30.2567  -72.4375 C.ar      11 UNK        -0.0753 
     14 C14       -78.4582   30.3080  -73.5969 C.ar      11 UNK        -0.0933 
     15 C15       -77.0987   31.5436  -71.8537 C.3       11 UNK         0.0166 
     16 S16       -75.3426   31.4166  -71.3551 S.3       11 UNK        -0.2615 
     17 C17       -74.5485   30.7905  -72.8781 C.3       11 UNK        -0.0865 
     18 CA        -73.1944   30.0601  -72.6238 C.3       10 UNK         0.0862 
     19 C         -73.3421   28.6035  -72.0721 C.2       10 UNK         0.5551 
     20 N         -72.4754   27.6652  -72.4359 N.am      10 UNK        -0.7319 
     21 O         -74.2219   28.3178  -71.2659 O.2       10 UNK        -0.5018 
     22 N         -72.2776   30.1706  -73.7726 N.am      10 UNK        -0.4509 
     23 C         -72.5315   29.7308  -75.0129 C.2       10 UNK         0.4899 
     24 O         -73.6236   29.2975  -75.3747 O.2       10 UNK        -0.4839 
     25 CA        -71.3765   29.7670  -76.0319 C.3       9 UNK         0.0222 
     26 CB        -70.2369   30.7458  -75.6661 C.3       9 UNK        -0.1966 
     27 N         -70.8527   28.4205  -76.2919 N.am      9 UNK        -0.4218 
     28 C         -70.3158   27.5734  -75.3971 C.2       9 UNK         0.5020 
     29 O         -70.1499   27.8560  -74.2085 O.2       9 UNK        -0.5274 
     30 CA        -69.9065   26.1779  -75.9058 C.3       8 UNK         0.0270 
     31 CB        -69.8960   25.1234  -74.7827 C.3       8 UNK        -0.1976 
     32 N         -70.8158   25.7359  -76.9607 N.am      8 UNK        -0.4313 
     33 C         -70.4639   25.3502  -78.1939 C.2       8 UNK         0.5041 
     34 O         -69.2961   25.2406  -78.5699 O.2       8 UNK        -0.5577 
     35 CA        -71.6018   25.0552  -79.1945 C.3       7 UNK         0.0284 
     36 CB        -71.8529   23.5416  -79.2888 C.3       7 UNK        -0.1958 
     37 N         -72.8664   25.7301  -78.8815 N.am      7 UNK        -0.4454 
     38 C         -73.0364   27.0574  -78.7998 C.2       7 UNK         0.5089 
     39 O         -72.1535   27.8765  -79.0581 O.2       7 UNK        -0.5125 
     40 CA        -74.3962   27.5609  -78.2841 C.3       6 UNK         0.0408 
     41 CB        -75.3294   27.8658  -79.4663 C.3       6 UNK        -0.1791 
     42 N         -75.0937   26.6745  -77.3412 N.am      6 UNK        -0.4762 
     43 C         -74.5996   26.0700  -76.2459 C.2       6 UNK         0.5007 
     44 O         -73.4147   26.1040  -75.9147 O.2       6 UNK        -0.5032 
     45 CA        -75.5920   25.2676  -75.3769 C.3       5 UNK         0.0783 
     46 C46       -75.8319   26.0027  -74.0325 C.3       11 UNK        -0.0857 
     47 S47       -77.0849   25.1850  -72.9793 S.3       11 UNK        -0.2512 
     48 C48       -77.5197   26.4959  -71.7817 C.3       11 UNK         0.0225 
     49 N         -76.8458   24.9444  -76.0752 N.am      5 UNK        -0.4615 
     50 C         -76.9691   24.0897  -77.0985 C.2       4 UNK         0.5053 
     51 O         -76.0123   23.5206  -77.6264 O.2       4 UNK        -0.5105 
     52 CA        -78.4064   23.8127  -77.5847 C.3       4 UNK         0.0263 
     53 CB        -78.4431   22.9717  -78.8744 C.3       4 UNK        -0.1981 
     54 N         -79.1859   23.1310  -76.5474 N.am      4 UNK        -0.4224 
     55 C         -79.7214   23.7300  -75.4765 C.2       3 UNK         0.4895 
     56 O         -79.6984   24.9518  -75.3010 O.2       3 UNK        -0.5091 
     57 CA        -80.3425   22.8151  -74.4120 C.3       3 UNK         0.0250 
     58 CB        -79.3018   21.8239  -73.8474 C.3       3 UNK        -0.1996 
     59 N         -80.8665   23.6520  -73.3367 N.am      3 UNK        -0.4254 
     60 C         -81.7301   23.2820  -72.3850 C.2       2 UNK         0.5004 
     61 O         -82.2273   22.1577  -72.3088 O.2       2 UNK        -0.5226 
     62 CA        -82.0949   24.3386  -71.3271 C.3       2 UNK         0.0269 
     63 CB        -81.2217   24.1611  -70.0740 C.3       2 UNK        -0.1926 
     64 N         -81.9559   25.7153  -71.8104 N.am      2 UNK        -0.4687 
     65 C         -82.8229   26.3288  -72.6293 C.2       1 UNK         0.5165 
     66 O         -83.8457   25.7923  -73.0576 O.2       1 UNK        -0.5079 
     67 H67       -80.0971   30.2124  -70.8445 H         1 UNK         0.0900 
     68 H68       -79.9240   28.7973  -69.7967 H         1 UNK         0.0900 
     69 H69       -81.0128   30.1126  -69.3433 H         1 UNK         0.0900 
     70 H70       -80.6153   28.6224  -72.5835 H         1 UNK         0.2959 
     71 H71       -83.4255   28.3413  -72.9815 H         1 UNK         0.1079 
     72 H72       -81.2399   27.0850  -74.7137 H         1 UNK         0.0837 
     73 H73       -82.8698   27.4557  -75.1759 H         1 UNK         0.0837 
     74 H74       -79.4127   30.0244  -76.0742 H         1 UNK         0.0685 
     75 H75       -79.6252   28.2957  -76.0487 H         1 UNK         0.0685 
     76 H76       -79.0384   26.9948  -74.0262 H         1 UNK         0.1434 
     77 H77       -76.8167   28.9732  -70.9468 H         1 UNK         0.1329 
     78 H78       -78.6645   31.2605  -74.0659 H         1 UNK         0.1335 
     79 H79       -77.1887   32.3613  -72.5705 H         1 UNK         0.0680 
     80 H80       -77.6902   31.8292  -70.9831 H         1 UNK         0.0680 
     81 H81       -74.3928   31.6541  -73.5260 H         1 UNK         0.1032 
     82 H82       -75.2269   30.1335  -73.4237 H         1 UNK         0.1032 
     83 H83       -72.6812   30.6013  -71.8283 H         1 UNK         0.0461 
     84 H84       -72.5712   26.7389  -72.0543 H         1 UNK         0.3453 
     85 H85       -71.7146   27.8714  -73.0761 H         1 UNK         0.3453 
     86 H86       -71.3394   30.4756  -73.5576 H         1 UNK         0.2984 
     87 H87       -71.8114   30.1107  -76.9718 H         1 UNK         0.0554 
     88 H88       -69.5130   30.8184  -76.4778 H         1 UNK         0.0847 
     89 H89       -69.6923   30.4428  -74.7715 H         1 UNK         0.0847 
     90 H90       -70.6233   31.7514  -75.4945 H         1 UNK         0.0847 
     91 H91       -70.9961   28.0826  -77.2371 H         1 UNK         0.3141 
     92 H92       -68.8911   26.2771  -76.2942 H         1 UNK         0.0743 
     93 H93       -70.8785   25.0249  -74.3187 H         1 UNK         0.0784 
     94 H94       -69.6042   24.1442  -75.1622 H         1 UNK         0.0784 
     95 H95       -69.1867   25.3897  -73.9980 H         1 UNK         0.0784 
     96 H96       -71.8070   25.8116  -76.7286 H         1 UNK         0.3213 
     97 H97       -71.2722   25.4121  -80.1725 H         1 UNK         0.0855 
     98 H98       -72.2136   23.1331  -78.3438 H         1 UNK         0.0814 
     99 H99       -70.9361   23.0088  -79.5457 H         1 UNK         0.0814 
    100 H100      -72.5879   23.3072  -80.0591 H         1 UNK         0.0814 
    101 H101      -73.6485   25.1407  -78.6311 H         1 UNK         0.3105 
    102 H102      -74.2085   28.4979  -77.7597 H         1 UNK         0.0547 
    103 H103      -74.8509   28.5394  -80.1789 H         1 UNK         0.0837 
    104 H104      -75.6036   26.9598  -80.0083 H         1 UNK         0.0837 
    105 H105      -76.2473   28.3514  -79.1347 H         1 UNK         0.0837 
    106 H106      -76.0826   26.5560  -77.5043 H         1 UNK         0.3020 
    107 H107      -75.1012   24.3182  -75.1507 H         1 UNK         0.1245 
    108 H108      -76.1323   27.0332  -74.2252 H         1 UNK         0.0781 
    109 H109      -74.9028   26.0666  -73.4628 H         1 UNK         0.0781 
    110 H110      -76.6710   26.6243  -71.1074 H         1 UNK         0.0836 
    111 H111      -78.3518   26.1501  -71.1679 H         1 UNK         0.0836 
    112 H112      -77.6970   25.3077  -75.6594 H         1 UNK         0.3022 
    113 H113      -78.8703   24.7769  -77.8046 H         1 UNK         0.0747 
    114 H114      -79.4647   22.8359  -79.2299 H         1 UNK         0.0793 
    115 H115      -77.8856   23.4603  -79.6747 H         1 UNK         0.0793 
    116 H116      -78.0046   21.9837  -78.7278 H         1 UNK         0.0793 
    117 H117      -79.2238   22.1236  -76.6080 H         1 UNK         0.3047 
    118 H118      -81.1681   22.2681  -74.8717 H         1 UNK         0.0822 
    119 H119      -78.9156   21.1609  -74.6219 H         1 UNK         0.0807 
    120 H120      -79.7326   21.1863  -73.0755 H         1 UNK         0.0807 
    121 H121      -78.4502   22.3457  -73.4086 H         1 UNK         0.0807 
    122 H122      -80.5404   24.6096  -73.3696 H         1 UNK         0.2946 
    123 H123      -83.1378   24.1725  -71.0462 H         1 UNK         0.1144 
    124 H124      -81.3269   23.1550  -69.6652 H         1 UNK         0.0793 
    125 H125      -81.5083   24.8599  -69.2878 H         1 UNK         0.0793 
    126 H126      -80.1640   24.3143  -70.2927 H         1 UNK         0.0793 
    127 H127      -81.1534   26.2386  -71.4927 H         1 UNK         0.2896 
@<TRIPOS>BOND
     1    1    2 1    
     2    1   67 1    
     3    1   68 1    
     4    1   69 1    
     5    2    3 2    
     6    2    4 am   BACKBONE|DICT|INTERRES
     7    4    5 1    
     8    4   70 1    
     9    5    6 1    
    10    5   65 1    
    11    5   71 1    
    12    6    7 1    
    13    6   72 1    
    14    6   73 1    
    15    7    8 1    
    16    8    9 1    
    17    8   74 1    
    18    8   75 1    
    19    9   10 ar   
    20    9   14 ar   
    21   10   11 ar   
    22   10   76 1    
    23   11   12 ar   
    24   11   48 1    
    25   12   13 ar   
    26   12   77 1    
    27   13   14 ar   
    28   13   15 1    
    29   14   78 1    
    30   15   16 1    
    31   15   79 1    
    32   15   80 1    
    33   16   17 1    
    34   17   18 1    
    35   17   81 1    
    36   17   82 1    
    37   18   19 1    
    38   18   22 1    
    39   18   83 1    
    40   19   20 am   BACKBONE|DICT|INTERRES
    41   19   21 2    
    42   20   84 1    
    43   20   85 1    
    44   22   23 am   BACKBONE|DICT|INTERRES
    45   22   86 1    
    46   23   24 2    
    47   23   25 1    
    48   25   26 1    
    49   25   27 1    
    50   25   87 1    
    51   26   88 1    
    52   26   89 1    
    53   26   90 1    
    54   27   28 am   BACKBONE|DICT|INTERRES
    55   27   91 1    
    56   28   29 2    
    57   28   30 1    
    58   30   31 1    
    59   30   32 1    
    60   30   92 1    
    61   31   93 1    
    62   31   94 1    
    63   31   95 1    
    64   32   33 am   BACKBONE|DICT|INTERRES
    65   32   96 1    
    66   33   34 2    
    67   33   35 1    
    68   35   36 1    
    69   35   37 1    
    70   35   97 1    
    71   36   98 1    
    72   36   99 1    
    73   36  100 1    
    74   37   38 am   BACKBONE|DICT|INTERRES
    75   37  101 1    
    76   38   39 2    
    77   38   40 1    
    78   40   41 1    
    79   40   42 1    
    80   40  102 1    
    81   41  103 1    
    82   41  104 1    
    83   41  105 1    
    84   42   43 am   BACKBONE|DICT|INTERRES
    85   42  106 1    
    86   43   44 2    
    87   43   45 1    
    88   45   46 1    
    89   45   49 1    
    90   45  107 1    
    91   46   47 1    
    92   46  108 1    
    93   46  109 1    
    94   47   48 1    
    95   48  110 1    
    96   48  111 1    
    97   49   50 am   BACKBONE|DICT|INTERRES
    98   49  112 1    
    99   50   51 2    
   100   50   52 1    
   101   52   53 1    
   102   52   54 1    
   103   52  113 1    
   104   53  114 1    
   105   53  115 1    
   106   53  116 1    
   107   54   55 am   BACKBONE|DICT|INTERRES
   108   54  117 1    
   109   55   56 2    
   110   55   57 1    
   111   57   58 1    
   112   57   59 1    
   113   57  118 1    
   114   58  119 1    
   115   58  120 1    
   116   58  121 1    
   117   59   60 am   BACKBONE|DICT|INTERRES
   118   59  122 1    
   119   60   61 2    
   120   60   62 1    
   121   62   63 1    
   122   62   64 1    
   123   62  123 1    
   124   63  124 1    
   125   63  125 1    
   126   63  126 1    
   127   64   65 am   BACKBONE|DICT|INTERRES
   128   64  127 1    
   129   65   66 2    
@<TRIPOS>SUBSTRUCTURE
     1 UNK         1 GROUP             0       ****    0 ROOT    
