@<TRIPOS>MOLECULE
3R135
127   129    1
SMALL
USER_CHARGES


@<TRIPOS>ATOM
      1 CA        -75.8529   21.2541  -74.3205 C.3       0 UNK        -0.1998 
      2 C         -76.4271   21.9984  -73.1244 C.2       0 UNK         0.4909 
      3 O         -76.3041   21.5301  -71.9919 O.2       0 UNK        -0.5240 
      4 N         -77.0457   23.1562  -73.3728 N.am      1 UNK        -0.4739 
      5 CA        -77.7238   23.9902  -72.3811 C.3       1 UNK         0.0864 
      6 C6        -77.5230   25.4883  -72.7288 C.3       11 UNK        -0.0881 
      7 S7        -77.4637   26.5586  -71.2545 S.3       11 UNK        -0.2682 
      8 C8        -78.7632   27.7809  -71.6379 C.3       11 UNK         0.0289 
      9 C9        -78.5410   28.5336  -72.9479 C.ar      11 UNK        -0.0687 
     10 C10       -79.6287   28.7828  -73.7876 C.ar      11 UNK        -0.0823 
     11 C11       -79.4602   29.4876  -74.9818 C.ar      11 UNK        -0.0830 
     12 C12       -78.1898   29.9592  -75.3315 C.ar      11 UNK        -0.1021 
     13 C13       -77.0860   29.7101  -74.5074 C.ar      11 UNK        -0.0753 
     14 C14       -77.2731   28.9947  -73.3194 C.ar      11 UNK        -0.0933 
     15 C15       -75.6972   30.1961  -74.9173 C.3       11 UNK         0.0166 
     16 S16       -74.9417   31.3089  -73.6866 S.3       11 UNK        -0.2615 
     17 C17       -74.0791   30.1312  -72.5850 C.3       11 UNK        -0.0865 
     18 CA        -72.6345   30.5713  -72.2405 C.3       10 UNK         0.0862 
     19 C         -71.9960   29.5901  -71.2194 C.2       10 UNK         0.5551 
     20 N         -71.4383   28.4684  -71.6583 N.am      10 UNK        -0.7319 
     21 O         -72.0067   29.8522  -70.0192 O.2       10 UNK        -0.5018 
     22 N         -71.8108   30.7860  -73.4400 N.am      10 UNK        -0.4509 
     23 C         -70.6202   31.3974  -73.4482 C.2       10 UNK         0.4899 
     24 O         -70.0918   31.8796  -72.4447 O.2       10 UNK        -0.4839 
     25 CA        -69.8984   31.4722  -74.8081 C.3       9 UNK         0.0222 
     26 CB        -68.5585   32.2290  -74.7316 C.3       9 UNK        -0.1966 
     27 N         -69.6570   30.1326  -75.3462 N.am      9 UNK        -0.4218 
     28 C         -70.5572   29.3933  -76.0049 C.2       9 UNK         0.5020 
     29 O         -71.6829   29.8054  -76.2996 O.2       9 UNK        -0.5274 
     30 CA        -70.1438   27.9575  -76.3911 C.3       8 UNK         0.0270 
     31 CB        -68.9789   27.3878  -75.5481 C.3       8 UNK        -0.1976 
     32 N         -71.2916   27.0451  -76.3687 N.am      8 UNK        -0.4313 
     33 C         -72.0797   26.7578  -75.3237 C.2       8 UNK         0.5041 
     34 O         -71.8988   27.1856  -74.1809 O.2       8 UNK        -0.5577 
     35 CA        -73.3139   25.8915  -75.6400 C.3       7 UNK         0.0284 
     36 CB        -73.9536   25.2977  -74.3727 C.3       7 UNK        -0.1958 
     37 N         -74.3180   26.6778  -76.3601 N.am      7 UNK        -0.4454 
     38 C         -74.2288   27.0580  -77.6424 C.2       7 UNK         0.5089 
     39 O         -73.3344   26.6790  -78.4024 O.2       7 UNK        -0.5125 
     40 CA        -75.2930   28.0575  -78.1325 C.3       6 UNK         0.0408 
     41 CB        -75.3338   28.2001  -79.6693 C.3       6 UNK        -0.1791 
     42 N         -76.6266   27.7967  -77.5757 N.am      6 UNK        -0.4762 
     43 C         -77.4224   26.7462  -77.8289 C.2       6 UNK         0.5007 
     44 O         -77.1428   25.8361  -78.6132 O.2       6 UNK        -0.5032 
     45 CA        -78.7867   26.7709  -77.1075 C.3       5 UNK         0.0783 
     46 C46       -79.7140   27.8302  -77.7581 C.3       11 UNK        -0.0857 
     47 S47       -81.1762   28.1867  -76.7306 S.3       11 UNK        -0.2512 
     48 C48       -80.6564   29.7218  -75.8940 C.3       11 UNK         0.0225 
     49 N         -79.4372   25.4590  -77.0586 N.am      5 UNK        -0.4615 
     50 C         -78.9605   24.3625  -76.4604 C.2       4 UNK         0.5053 
     51 O         -77.9013   24.3184  -75.8312 O.2       4 UNK        -0.5105 
     52 CA        -79.8610   23.1217  -76.5496 C.3       4 UNK         0.0263 
     53 CB        -79.1044   21.8104  -76.2689 C.3       4 UNK        -0.1981 
     54 N         -80.9773   23.2567  -75.6124 N.am      4 UNK        -0.4224 
     55 C         -82.1328   23.8780  -75.8943 C.2       3 UNK         0.4895 
     56 O         -82.3780   24.3763  -76.9941 O.2       3 UNK        -0.5091 
     57 CA        -83.2080   23.9541  -74.7927 C.3       3 UNK         0.0250 
     58 CB        -84.2956   22.8945  -75.0349 C.3       3 UNK        -0.1996 
     59 N         -82.6759   23.7883  -73.4386 N.am      3 UNK        -0.4254 
     60 C         -82.0337   24.7423  -72.7519 C.2       2 UNK         0.5004 
     61 O         -81.8672   25.8904  -73.1652 O.2       2 UNK        -0.5226 
     62 CA        -81.4338   24.3511  -71.3858 C.3       2 UNK         0.0269 
     63 CB        -81.9712   23.0227  -70.8040 C.3       2 UNK        -0.1926 
     64 N         -79.9677   24.3390  -71.4590 N.am      2 UNK        -0.4687 
     65 C         -79.2205   23.6197  -72.3090 C.2       1 UNK         0.5165 
     66 O         -79.6860   22.7396  -73.0394 O.2       1 UNK        -0.5079 
     67 H67       -75.9763   21.8177  -75.2456 H         1 UNK         0.0900 
     68 H68       -76.3520   20.2928  -74.4391 H         1 UNK         0.0900 
     69 H69       -74.7884   21.0722  -74.1750 H         1 UNK         0.0900 
     70 H70       -77.1876   23.4597  -74.3345 H         1 UNK         0.2959 
     71 H71       -77.2893   23.7884  -71.3993 H         1 UNK         0.1079 
     72 H72       -76.5709   25.6350  -73.2366 H         1 UNK         0.0837 
     73 H73       -78.2753   25.8369  -73.4401 H         1 UNK         0.0837 
     74 H74       -79.7268   27.2692  -71.6521 H         1 UNK         0.0685 
     75 H75       -78.8109   28.5061  -70.8249 H         1 UNK         0.0685 
     76 H76       -80.6119   28.4183  -73.5193 H         1 UNK         0.1434 
     77 H77       -78.0615   30.5153  -76.2505 H         1 UNK         0.1329 
     78 H78       -76.4316   28.7956  -72.6743 H         1 UNK         0.1335 
     79 H79       -75.7537   30.7416  -75.8605 H         1 UNK         0.0680 
     80 H80       -75.0446   29.3430  -75.1044 H         1 UNK         0.0680 
     81 H81       -74.6693   30.0410  -71.6708 H         1 UNK         0.1032 
     82 H82       -74.0634   29.1372  -73.0364 H         1 UNK         0.1032 
     83 H83       -72.7091   31.5384  -71.7385 H         1 UNK         0.0461 
     84 H84       -71.5111   28.1887  -72.6345 H         1 UNK         0.3453 
     85 H85       -71.0210   27.8374  -70.9940 H         1 UNK         0.3453 
     86 H86       -72.1575   30.3993  -74.3100 H         1 UNK         0.2984 
     87 H87       -70.5488   32.0229  -75.4912 H         1 UNK         0.0554 
     88 H88       -68.0892   32.3057  -75.7126 H         1 UNK         0.0847 
     89 H89       -67.8529   31.7392  -74.0591 H         1 UNK         0.0847 
     90 H90       -68.7051   33.2461  -74.3655 H         1 UNK         0.0847 
     91 H91       -68.7720   29.7063  -75.1115 H         1 UNK         0.3141 
     92 H92       -69.8136   28.0052  -77.4297 H         1 UNK         0.0743 
     93 H93       -68.0553   27.9435  -75.7132 H         1 UNK         0.0784 
     94 H94       -68.7724   26.3517  -75.8168 H         1 UNK         0.0784 
     95 H95       -69.1977   27.4119  -74.4795 H         1 UNK         0.0784 
     96 H96       -71.6259   26.7397  -77.2778 H         1 UNK         0.3213 
     97 H97       -72.9919   25.0613  -76.2726 H         1 UNK         0.0855 
     98 H98       -73.2356   24.6848  -73.8263 H         1 UNK         0.0814 
     99 H99       -74.8013   24.6589  -74.6205 H         1 UNK         0.0814 
    100 H100      -74.2985   26.0759  -73.6908 H         1 UNK         0.0814 
    101 H101      -75.0867   27.0325  -75.8126 H         1 UNK         0.3105 
    102 H102      -74.9880   29.0263  -77.7343 H         1 UNK         0.0547 
    103 H103      -75.5441   27.2509  -80.1627 H         1 UNK         0.0837 
    104 H104      -74.3759   28.5545  -80.0518 H         1 UNK         0.0837 
    105 H105      -76.0914   28.9179  -79.9828 H         1 UNK         0.0837 
    106 H106      -76.9639   28.4941  -76.9266 H         1 UNK         0.3020 
    107 H107      -78.5892   27.0530  -76.0712 H         1 UNK         0.1245 
    108 H108      -80.0556   27.4873  -78.7367 H         1 UNK         0.0781 
    109 H109      -79.1898   28.7693  -77.9443 H         1 UNK         0.0781 
    110 H110      -81.4913   30.1022  -75.3036 H         1 UNK         0.0836 
    111 H111      -80.4376   30.4883  -76.6392 H         1 UNK         0.0836 
    112 H112      -80.3480   25.4010  -77.4949 H         1 UNK         0.3022 
    113 H113      -80.2417   23.0589  -77.5715 H         1 UNK         0.0747 
    114 H114      -79.7476   20.9444  -76.4248 H         1 UNK         0.0793 
    115 H115      -78.2489   21.7038  -76.9370 H         1 UNK         0.0793 
    116 H116      -78.7286   21.7627  -75.2484 H         1 UNK         0.0793 
    117 H117      -80.7971   22.9449  -74.6621 H         1 UNK         0.3047 
    118 H118      -83.6733   24.9400  -74.8633 H         1 UNK         0.0822 
    119 H119      -85.1043   22.9822  -74.3090 H         1 UNK         0.0807 
    120 H120      -83.8949   21.8819  -74.9727 H         1 UNK         0.0807 
    121 H121      -84.7385   23.0091  -76.0254 H         1 UNK         0.0807 
    122 H122      -82.7402   22.8663  -73.0315 H         1 UNK         0.2946 
    123 H123      -81.7109   25.1496  -70.6953 H         1 UNK         0.1144 
    124 H124      -83.0585   23.0430  -70.7178 H         1 UNK         0.0793 
    125 H125      -81.5774   22.8525  -69.8019 H         1 UNK         0.0793 
    126 H126      -81.7018   22.1568  -71.4092 H         1 UNK         0.0793 
    127 H127      -79.4980   25.0560  -70.9218 H         1 UNK         0.2896 
@<TRIPOS>BOND
     1    1    2 1    
     2    1   67 1    
     3    1   68 1    
     4    1   69 1    
     5    2    3 2    
     6    2    4 am   BACKBONE|DICT|INTERRES
     7    4    5 1    
     8    4   70 1    
     9    5    6 1    
    10    5   65 1    
    11    5   71 1    
    12    6    7 1    
    13    6   72 1    
    14    6   73 1    
    15    7    8 1    
    16    8    9 1    
    17    8   74 1    
    18    8   75 1    
    19    9   10 ar   
    20    9   14 ar   
    21   10   11 ar   
    22   10   76 1    
    23   11   12 ar   
    24   11   48 1    
    25   12   13 ar   
    26   12   77 1    
    27   13   14 ar   
    28   13   15 1    
    29   14   78 1    
    30   15   16 1    
    31   15   79 1    
    32   15   80 1    
    33   16   17 1    
    34   17   18 1    
    35   17   81 1    
    36   17   82 1    
    37   18   19 1    
    38   18   22 1    
    39   18   83 1    
    40   19   20 am   BACKBONE|DICT|INTERRES
    41   19   21 2    
    42   20   84 1    
    43   20   85 1    
    44   22   23 am   BACKBONE|DICT|INTERRES
    45   22   86 1    
    46   23   24 2    
    47   23   25 1    
    48   25   26 1    
    49   25   27 1    
    50   25   87 1    
    51   26   88 1    
    52   26   89 1    
    53   26   90 1    
    54   27   28 am   BACKBONE|DICT|INTERRES
    55   27   91 1    
    56   28   29 2    
    57   28   30 1    
    58   30   31 1    
    59   30   32 1    
    60   30   92 1    
    61   31   93 1    
    62   31   94 1    
    63   31   95 1    
    64   32   33 am   BACKBONE|DICT|INTERRES
    65   32   96 1    
    66   33   34 2    
    67   33   35 1    
    68   35   36 1    
    69   35   37 1    
    70   35   97 1    
    71   36   98 1    
    72   36   99 1    
    73   36  100 1    
    74   37   38 am   BACKBONE|DICT|INTERRES
    75   37  101 1    
    76   38   39 2    
    77   38   40 1    
    78   40   41 1    
    79   40   42 1    
    80   40  102 1    
    81   41  103 1    
    82   41  104 1    
    83   41  105 1    
    84   42   43 am   BACKBONE|DICT|INTERRES
    85   42  106 1    
    86   43   44 2    
    87   43   45 1    
    88   45   46 1    
    89   45   49 1    
    90   45  107 1    
    91   46   47 1    
    92   46  108 1    
    93   46  109 1    
    94   47   48 1    
    95   48  110 1    
    96   48  111 1    
    97   49   50 am   BACKBONE|DICT|INTERRES
    98   49  112 1    
    99   50   51 2    
   100   50   52 1    
   101   52   53 1    
   102   52   54 1    
   103   52  113 1    
   104   53  114 1    
   105   53  115 1    
   106   53  116 1    
   107   54   55 am   BACKBONE|DICT|INTERRES
   108   54  117 1    
   109   55   56 2    
   110   55   57 1    
   111   57   58 1    
   112   57   59 1    
   113   57  118 1    
   114   58  119 1    
   115   58  120 1    
   116   58  121 1    
   117   59   60 am   BACKBONE|DICT|INTERRES
   118   59  122 1    
   119   60   61 2    
   120   60   62 1    
   121   62   63 1    
   122   62   64 1    
   123   62  123 1    
   124   63  124 1    
   125   63  125 1    
   126   63  126 1    
   127   64   65 am   BACKBONE|DICT|INTERRES
   128   64  127 1    
   129   65   66 2    
@<TRIPOS>SUBSTRUCTURE
     1 UNK         1 GROUP             0       ****    0 ROOT    
