@<TRIPOS>MOLECULE
3R135
127   129    1
SMALL
USER_CHARGES


@<TRIPOS>ATOM
      1 CA        -77.2830   22.0496  -70.5629 C.3       0 UNK        -0.1998 
      2 C         -78.5832   22.2803  -71.3185 C.2       0 UNK         0.4909 
      3 O         -79.3859   21.3563  -71.4510 O.2       0 UNK        -0.5240 
      4 N         -78.7965   23.5100  -71.8062 N.am      1 UNK        -0.4739 
      5 CA        -79.9812   23.9253  -72.5681 C.3       1 UNK         0.0864 
      6 C6        -80.0463   25.4663  -72.7271 C.3       11 UNK        -0.0881 
      7 S7        -80.6430   26.2670  -71.2019 S.3       11 UNK        -0.2682 
      8 C8        -79.1031   26.6523  -70.3013 C.3       11 UNK         0.0289 
      9 C9        -78.3058   27.8110  -70.8919 C.ar      11 UNK        -0.0687 
     10 C10       -78.9387   29.0048  -71.2544 C.ar      11 UNK        -0.0823 
     11 C11       -78.1961   30.0886  -71.7296 C.ar      11 UNK        -0.0830 
     12 C12       -76.8050   29.9841  -71.8185 C.ar      11 UNK        -0.1021 
     13 C13       -76.1582   28.7966  -71.4662 C.ar      11 UNK        -0.0753 
     14 C14       -76.9151   27.7123  -71.0094 C.ar      11 UNK        -0.0933 
     15 C15       -74.6412   28.6955  -71.5452 C.3       11 UNK         0.0166 
     16 S16       -74.0572   28.6334  -73.2663 S.3       11 UNK        -0.2615 
     17 C17       -73.4050   30.3256  -73.5001 C.3       11 UNK        -0.0865 
     18 CA        -72.7214   30.5358  -74.8794 C.3       10 UNK         0.0862 
     19 C         -72.1992   31.9931  -75.0378 C.2       10 UNK         0.5551 
     20 N         -70.9172   32.2164  -75.3002 N.am      10 UNK        -0.7319 
     21 O         -72.9734   32.9399  -74.9227 O.2       10 UNK        -0.5018 
     22 N         -71.7231   29.4910  -75.1481 N.am      10 UNK        -0.4509 
     23 C         -71.3419   29.0536  -76.3518 C.2       10 UNK         0.4899 
     24 O         -71.7118   29.5556  -77.4126 O.2       10 UNK        -0.4839 
     25 CA        -70.4313   27.8106  -76.3883 C.3       9 UNK         0.0222 
     26 CB        -68.9416   28.2064  -76.3790 C.3       9 UNK        -0.1966 
     27 N         -70.7458   26.8066  -75.3563 N.am      9 UNK        -0.4218 
     28 C         -70.5851   26.8871  -74.0257 C.2       9 UNK         0.5020 
     29 O         -70.0789   27.8529  -73.4523 O.2       9 UNK        -0.5274 
     30 CA        -71.1899   25.7394  -73.2072 C.3       8 UNK         0.0270 
     31 CB        -71.0764   25.9536  -71.6854 C.3       8 UNK        -0.1976 
     32 N         -72.5987   25.6188  -73.5733 N.am      8 UNK        -0.4313 
     33 C         -73.2258   24.4842  -73.8957 C.2       8 UNK         0.5041 
     34 O         -72.7006   23.3710  -73.8565 O.2       8 UNK        -0.5577 
     35 CA        -74.6888   24.6118  -74.3547 C.3       7 UNK         0.0284 
     36 CB        -75.6382   24.4608  -73.1567 C.3       7 UNK        -0.1958 
     37 N         -75.0005   25.8656  -75.0511 N.am      7 UNK        -0.4454 
     38 C         -74.4787   26.2612  -76.2224 C.2       7 UNK         0.5089 
     39 O         -73.6051   25.6334  -76.8217 O.2       7 UNK        -0.5125 
     40 CA        -75.0169   27.5718  -76.8264 C.3       6 UNK         0.0408 
     41 CB        -75.2421   27.4583  -78.3454 C.3       6 UNK        -0.1791 
     42 N         -76.2569   28.0083  -76.1793 N.am      6 UNK        -0.4762 
     43 C         -76.6241   29.2782  -75.9709 C.2       6 UNK         0.5007 
     44 O         -75.9646   30.2476  -76.3479 O.2       6 UNK        -0.5032 
     45 CA        -77.9778   29.4958  -75.2563 C.3       5 UNK         0.0783 
     46 C46       -78.1870   30.9794  -74.8511 C.3       11 UNK        -0.0857 
     47 S47       -79.6580   31.2105  -73.7969 S.3       11 UNK        -0.2512 
     48 C48       -78.9012   31.3704  -72.1472 C.3       11 UNK         0.0225 
     49 N         -79.0877   29.0085  -76.0821 N.am      5 UNK        -0.4615 
     50 C         -79.3919   27.7280  -76.3172 C.2       4 UNK         0.5053 
     51 O         -78.7940   26.7767  -75.8025 O.2       4 UNK        -0.5105 
     52 CA        -80.5280   27.4806  -77.3190 C.3       4 UNK         0.0263 
     53 CB        -80.2292   28.1214  -78.6907 C.3       4 UNK        -0.1981 
     54 N         -80.7055   26.0436  -77.4822 N.am      4 UNK        -0.4224 
     55 C         -81.8075   25.4175  -77.9017 C.2       3 UNK         0.4895 
     56 O         -82.8442   26.0055  -78.2129 O.2       3 UNK        -0.5091 
     57 CA        -81.7754   23.8781  -77.9797 C.3       3 UNK         0.0250 
     58 CB        -81.5798   23.4027  -79.4332 C.3       3 UNK        -0.1996 
     59 N         -80.8246   23.2222  -77.0672 N.am      3 UNK        -0.4254 
     60 C         -79.4845   23.2262  -77.0800 C.2       2 UNK         0.5004 
     61 O         -78.8093   23.8449  -77.9035 O.2       2 UNK        -0.5226 
     62 CA        -78.7919   22.4491  -75.9424 C.3       2 UNK         0.0269 
     63 CB        -77.2910   22.2383  -76.2151 C.3       2 UNK        -0.1926 
     64 N         -78.9398   23.1117  -74.6426 N.am      2 UNK        -0.4687 
     65 C         -80.0732   23.2140  -73.9331 C.2       1 UNK         0.5165 
     66 O         -81.1537   22.7502  -74.3027 O.2       1 UNK        -0.5079 
     67 H67       -76.6476   21.3564  -71.1135 H         1 UNK         0.0900 
     68 H68       -77.4898   21.6179  -69.5840 H         1 UNK         0.0900 
     69 H69       -76.7277   22.9749  -70.4114 H         1 UNK         0.0900 
     70 H70       -78.1094   24.2289  -71.6409 H         1 UNK         0.2959 
     71 H71       -80.8602   23.6003  -72.0059 H         1 UNK         0.1079 
     72 H72       -79.0828   25.8840  -73.0258 H         1 UNK         0.0837 
     73 H73       -80.7469   25.7477  -73.5166 H         1 UNK         0.0837 
     74 H74       -79.3683   26.9167  -69.2769 H         1 UNK         0.0685 
     75 H75       -78.4918   25.7530  -70.2291 H         1 UNK         0.0685 
     76 H76       -80.0129   29.0933  -71.1654 H         1 UNK         0.1434 
     77 H77       -76.2242   30.8258  -72.1673 H         1 UNK         0.1329 
     78 H78       -76.4158   26.7999  -70.7141 H         1 UNK         0.1335 
     79 H79       -74.2924   27.7970  -71.0336 H         1 UNK         0.0680 
     80 H80       -74.1889   29.5365  -71.0179 H         1 UNK         0.0680 
     81 H81       -72.6978   30.5382  -72.6961 H         1 UNK         0.1032 
     82 H82       -74.2289   31.0307  -73.3809 H         1 UNK         0.1032 
     83 H83       -73.4958   30.4304  -75.6384 H         1 UNK         0.0461 
     84 H84       -70.5886   33.1635  -75.4035 H         1 UNK         0.3453 
     85 H85       -70.2791   31.4434  -75.3995 H         1 UNK         0.3453 
     86 H86       -71.3093   29.0433  -74.3362 H         1 UNK         0.2984 
     87 H87       -70.6287   27.3134  -77.3395 H         1 UNK         0.0554 
     88 H88       -68.2979   27.3302  -76.4553 H         1 UNK         0.0847 
     89 H89       -68.6646   28.7486  -75.4747 H         1 UNK         0.0847 
     90 H90       -68.7085   28.8538  -77.2253 H         1 UNK         0.0847 
     91 H91       -71.2366   25.9926  -75.7046 H         1 UNK         0.3141 
     92 H92       -70.6411   24.8337  -73.4739 H         1 UNK         0.0743 
     93 H93       -71.4997   25.1125  -71.1362 H         1 UNK         0.0784 
     94 H94       -70.0336   26.0489  -71.3803 H         1 UNK         0.0784 
     95 H95       -71.5967   26.8576  -71.3658 H         1 UNK         0.0784 
     96 H96       -73.1137   26.4887  -73.6447 H         1 UNK         0.3213 
     97 H97       -74.8761   23.7938  -75.0522 H         1 UNK         0.0855 
     98 H98       -75.4545   25.2247  -72.4003 H         1 UNK         0.0814 
     99 H99       -75.5068   23.4886  -72.6798 H         1 UNK         0.0814 
    100 H100      -76.6785   24.5388  -73.4668 H         1 UNK         0.0814 
    101 H101      -75.6595   26.4832  -74.6005 H         1 UNK         0.3105 
    102 H102      -74.2433   28.3198  -76.6491 H         1 UNK         0.0547 
    103 H103      -74.3220   27.1805  -78.8610 H         1 UNK         0.0837 
    104 H104      -75.9937   26.7046  -78.5831 H         1 UNK         0.0837 
    105 H105      -75.5716   28.4070  -78.7691 H         1 UNK         0.0837 
    106 H106      -76.9324   27.2840  -75.9455 H         1 UNK         0.3020 
    107 H107      -77.9453   28.8989  -74.3416 H         1 UNK         0.1245 
    108 H108      -78.3020   31.6053  -75.7379 H         1 UNK         0.0781 
    109 H109      -77.3122   31.3686  -74.3273 H         1 UNK         0.0781 
    110 H110      -79.6799   31.6117  -71.4221 H         1 UNK         0.0836 
    111 H111      -78.2101   32.2148  -72.1421 H         1 UNK         0.0836 
    112 H112      -79.6281   29.7249  -76.5440 H         1 UNK         0.3022 
    113 H113      -81.4415   27.9091  -76.9013 H         1 UNK         0.0747 
    114 H114      -81.0229   27.9135  -79.4085 H         1 UNK         0.0793 
    115 H115      -80.1458   29.2062  -78.6195 H         1 UNK         0.0793 
    116 H116      -79.2949   27.7469  -79.1115 H         1 UNK         0.0793 
    117 H117      -79.8886   25.4866  -77.2489 H         1 UNK         0.3047 
    118 H118      -82.7619   23.5410  -77.6570 H         1 UNK         0.0822 
    119 H119      -82.3627   23.8005  -80.0803 H         1 UNK         0.0807 
    120 H120      -81.6219   22.3159  -79.5049 H         1 UNK         0.0807 
    121 H121      -80.6250   23.7306  -79.8453 H         1 UNK         0.0807 
    122 H122      -81.2517   22.7820  -76.2563 H         1 UNK         0.2946 
    123 H123      -79.2626   21.4649  -75.8835 H         1 UNK         0.1144 
    124 H124      -77.1386   21.6928  -77.1473 H         1 UNK         0.0793 
    125 H125      -76.8164   21.6613  -75.4212 H         1 UNK         0.0793 
    126 H126      -76.7628   23.1879  -76.3065 H         1 UNK         0.0793 
    127 H127      -78.1065   23.5309  -74.2611 H         1 UNK         0.2896 
@<TRIPOS>BOND
     1    1    2 1    
     2    1   67 1    
     3    1   68 1    
     4    1   69 1    
     5    2    3 2    
     6    2    4 am   BACKBONE|DICT|INTERRES
     7    4    5 1    
     8    4   70 1    
     9    5    6 1    
    10    5   65 1    
    11    5   71 1    
    12    6    7 1    
    13    6   72 1    
    14    6   73 1    
    15    7    8 1    
    16    8    9 1    
    17    8   74 1    
    18    8   75 1    
    19    9   10 ar   
    20    9   14 ar   
    21   10   11 ar   
    22   10   76 1    
    23   11   12 ar   
    24   11   48 1    
    25   12   13 ar   
    26   12   77 1    
    27   13   14 ar   
    28   13   15 1    
    29   14   78 1    
    30   15   16 1    
    31   15   79 1    
    32   15   80 1    
    33   16   17 1    
    34   17   18 1    
    35   17   81 1    
    36   17   82 1    
    37   18   19 1    
    38   18   22 1    
    39   18   83 1    
    40   19   20 am   BACKBONE|DICT|INTERRES
    41   19   21 2    
    42   20   84 1    
    43   20   85 1    
    44   22   23 am   BACKBONE|DICT|INTERRES
    45   22   86 1    
    46   23   24 2    
    47   23   25 1    
    48   25   26 1    
    49   25   27 1    
    50   25   87 1    
    51   26   88 1    
    52   26   89 1    
    53   26   90 1    
    54   27   28 am   BACKBONE|DICT|INTERRES
    55   27   91 1    
    56   28   29 2    
    57   28   30 1    
    58   30   31 1    
    59   30   32 1    
    60   30   92 1    
    61   31   93 1    
    62   31   94 1    
    63   31   95 1    
    64   32   33 am   BACKBONE|DICT|INTERRES
    65   32   96 1    
    66   33   34 2    
    67   33   35 1    
    68   35   36 1    
    69   35   37 1    
    70   35   97 1    
    71   36   98 1    
    72   36   99 1    
    73   36  100 1    
    74   37   38 am   BACKBONE|DICT|INTERRES
    75   37  101 1    
    76   38   39 2    
    77   38   40 1    
    78   40   41 1    
    79   40   42 1    
    80   40  102 1    
    81   41  103 1    
    82   41  104 1    
    83   41  105 1    
    84   42   43 am   BACKBONE|DICT|INTERRES
    85   42  106 1    
    86   43   44 2    
    87   43   45 1    
    88   45   46 1    
    89   45   49 1    
    90   45  107 1    
    91   46   47 1    
    92   46  108 1    
    93   46  109 1    
    94   47   48 1    
    95   48  110 1    
    96   48  111 1    
    97   49   50 am   BACKBONE|DICT|INTERRES
    98   49  112 1    
    99   50   51 2    
   100   50   52 1    
   101   52   53 1    
   102   52   54 1    
   103   52  113 1    
   104   53  114 1    
   105   53  115 1    
   106   53  116 1    
   107   54   55 am   BACKBONE|DICT|INTERRES
   108   54  117 1    
   109   55   56 2    
   110   55   57 1    
   111   57   58 1    
   112   57   59 1    
   113   57  118 1    
   114   58  119 1    
   115   58  120 1    
   116   58  121 1    
   117   59   60 am   BACKBONE|DICT|INTERRES
   118   59  122 1    
   119   60   61 2    
   120   60   62 1    
   121   62   63 1    
   122   62   64 1    
   123   62  123 1    
   124   63  124 1    
   125   63  125 1    
   126   63  126 1    
   127   64   65 am   BACKBONE|DICT|INTERRES
   128   64  127 1    
   129   65   66 2    
@<TRIPOS>SUBSTRUCTURE
     1 UNK         1 GROUP             0       ****    0 ROOT    
