@<TRIPOS>MOLECULE
3R135
127   129    1
SMALL
USER_CHARGES


@<TRIPOS>ATOM
      1 CA        -74.9139   22.5379  -71.7949 C.3       0 UNK        -0.1998 
      2 C         -76.3715   22.9612  -71.7122 C.2       0 UNK         0.4909 
      3 O         -77.1377   22.3764  -70.9452 O.2       0 UNK        -0.5240 
      4 N         -76.7585   23.9754  -72.4945 N.am      1 UNK        -0.4739 
      5 CA        -78.1395   24.4470  -72.6283 C.3       1 UNK         0.0864 
      6 C6        -78.1602   25.8274  -73.3239 C.3       11 UNK        -0.0881 
      7 S7        -79.8005   26.6346  -73.3804 S.3       11 UNK        -0.2682 
      8 C8        -79.8134   27.6053  -71.8400 C.3       11 UNK         0.0289 
      9 C9        -78.7249   28.6667  -71.8270 C.ar      11 UNK        -0.0687 
     10 C10       -78.8254   29.7894  -72.6533 C.ar      11 UNK        -0.0823 
     11 C11       -77.8049   30.7437  -72.6735 C.ar      11 UNK        -0.0830 
     12 C12       -76.6996   30.5901  -71.8314 C.ar      11 UNK        -0.1021 
     13 C13       -76.5839   29.4664  -71.0084 C.ar      11 UNK        -0.0753 
     14 C14       -77.6041   28.5118  -71.0060 C.ar      11 UNK        -0.0933 
     15 C15       -75.3572   29.2702  -70.1297 C.3       11 UNK         0.0166 
     16 S16       -73.8913   28.7969  -71.1065 S.3       11 UNK        -0.2615 
     17 C17       -73.1413   30.4218  -71.4744 C.3       11 UNK        -0.0865 
     18 CA        -73.1610   30.8048  -72.9784 C.3       10 UNK         0.0862 
     19 C         -72.7310   32.2941  -73.1358 C.2       10 UNK         0.5551 
     20 N         -71.5225   32.5932  -73.5977 N.am      10 UNK        -0.7319 
     21 O         -73.5073   33.1913  -72.8176 O.2       10 UNK        -0.5018 
     22 N         -72.4089   29.8339  -73.7914 N.am      10 UNK        -0.4509 
     23 C         -72.3001   29.8380  -75.1252 C.2       10 UNK         0.4899 
     24 O         -72.8127   30.6848  -75.8575 O.2       10 UNK        -0.4839 
     25 CA        -71.4513   28.7281  -75.7691 C.3       9 UNK         0.0222 
     26 CB        -69.9484   29.0598  -75.6823 C.3       9 UNK        -0.1966 
     27 N         -71.7303   27.3622  -75.3030 N.am      9 UNK        -0.4218 
     28 C         -71.5166   26.8103  -74.0978 C.2       9 UNK         0.5020 
     29 O         -71.0766   27.4350  -73.1308 O.2       9 UNK        -0.5274 
     30 CA        -71.7772   25.2945  -73.9662 C.3       8 UNK         0.0270 
     31 CB        -72.1473   24.8604  -72.5310 C.3       8 UNK        -0.1976 
     32 N         -72.7012   24.7701  -74.9836 N.am      8 UNK        -0.4313 
     33 C         -74.0352   24.8963  -75.0379 C.2       8 UNK         0.5041 
     34 O         -74.7447   25.3281  -74.1278 O.2       8 UNK        -0.5577 
     35 CA        -74.6860   24.4914  -76.3711 C.3       7 UNK         0.0284 
     36 CB        -75.9048   23.5797  -76.1588 C.3       7 UNK        -0.1958 
     37 N         -75.0858   25.6910  -77.1097 N.am      7 UNK        -0.4454 
     38 C         -74.2212   26.5425  -77.6817 C.2       7 UNK         0.5089 
     39 O         -73.0064   26.3376  -77.7215 O.2       7 UNK        -0.5125 
     40 CA        -74.7707   27.8445  -78.3012 C.3       6 UNK         0.0408 
     41 CB        -74.9286   27.6836  -79.8210 C.3       6 UNK        -0.1791 
     42 N         -76.0395   28.3094  -77.7343 N.am      6 UNK        -0.4762 
     43 C         -76.2392   28.6485  -76.4510 C.2       6 UNK         0.5007 
     44 O         -75.3498   28.6386  -75.6026 O.2       6 UNK        -0.5032 
     45 CA        -77.6865   29.0049  -76.0309 C.3       5 UNK         0.0783 
     46 C46       -77.9720   30.5311  -76.1110 C.3       11 UNK        -0.0857 
     47 S47       -76.8810   31.6156  -75.1215 S.3       11 UNK        -0.2512 
     48 C48       -77.8723   31.9264  -73.6250 C.3       11 UNK         0.0225 
     49 N         -78.7402   28.2709  -76.7577 N.am      5 UNK        -0.4615 
     50 C         -78.8056   26.9548  -77.0024 C.2       4 UNK         0.5053 
     51 O         -77.9073   26.1512  -76.7470 O.2       4 UNK        -0.5105 
     52 CA        -80.0721   26.4487  -77.6974 C.3       4 UNK         0.0263 
     53 CB        -79.9874   26.7068  -79.2155 C.3       4 UNK        -0.1981 
     54 N         -80.1743   25.0197  -77.4178 N.am      4 UNK        -0.4224 
     55 C         -81.2041   24.2136  -77.6913 C.2       3 UNK         0.4895 
     56 O         -82.2528   24.5828  -78.2211 O.2       3 UNK        -0.5091 
     57 CA        -81.0255   22.7398  -77.2974 C.3       3 UNK         0.0250 
     58 CB        -79.8566   22.0895  -78.0590 C.3       3 UNK        -0.1996 
     59 N         -80.8187   22.5841  -75.8574 N.am      3 UNK        -0.4254 
     60 C         -81.7777   22.6782  -74.9290 C.2       2 UNK         0.5004 
     61 O         -82.9586   22.9145  -75.1865 O.2       2 UNK        -0.5226 
     62 CA        -81.3648   22.4480  -73.4638 C.3       2 UNK         0.0269 
     63 CB        -81.0328   20.9653  -73.1999 C.3       2 UNK        -0.1926 
     64 N         -80.2982   23.3354  -72.9776 N.am      2 UNK        -0.4687 
     65 C         -79.0135   23.3989  -73.3576 C.2       1 UNK         0.5165 
     66 O         -78.5240   22.6931  -74.2441 O.2       1 UNK        -0.5079 
     67 H67       -74.4689   22.8371  -72.7430 H         1 UNK         0.0900 
     68 H68       -74.8276   21.4548  -71.7130 H         1 UNK         0.0900 
     69 H69       -74.3432   22.9904  -70.9846 H         1 UNK         0.0900 
     70 H70       -76.0761   24.4306  -73.0995 H         1 UNK         0.2959 
     71 H71       -78.5338   24.5712  -71.6174 H         1 UNK         0.1079 
     72 H72       -77.4456   26.4947  -72.8431 H         1 UNK         0.0837 
     73 H73       -77.7924   25.7271  -74.3413 H         1 UNK         0.0837 
     74 H74       -80.7867   28.0864  -71.7341 H         1 UNK         0.0685 
     75 H75       -79.7112   26.9304  -70.9889 H         1 UNK         0.0685 
     76 H76       -79.6832   29.8995  -73.3028 H         1 UNK         0.1434 
     77 H77       -75.9142   31.3322  -71.8422 H         1 UNK         0.1329 
     78 H78       -77.5177   27.6365  -70.3767 H         1 UNK         0.1335 
     79 H79       -75.5430   28.4815  -69.3990 H         1 UNK         0.0680 
     80 H80       -75.1645   30.1716  -69.5469 H         1 UNK         0.0680 
     81 H81       -72.1120   30.4022  -71.1110 H         1 UNK         0.1032 
     82 H82       -73.6421   31.1871  -70.8792 H         1 UNK         0.1032 
     83 H83       -74.1922   30.7502  -73.3306 H         1 UNK         0.0461 
     84 H84       -71.2539   33.5596  -73.6939 H         1 UNK         0.3453 
     85 H85       -70.8839   31.8608  -73.8621 H         1 UNK         0.3453 
     86 H86       -71.9597   29.0717  -73.2895 H         1 UNK         0.2984 
     87 H87       -71.7136   28.7204  -76.8282 H         1 UNK         0.0554 
     88 H88       -69.3496   28.3292  -76.2260 H         1 UNK         0.0847 
     89 H89       -69.5924   29.0846  -74.6521 H         1 UNK         0.0847 
     90 H90       -69.7406   30.0373  -76.1195 H         1 UNK         0.0847 
     91 H91       -72.1391   26.7691  -76.0197 H         1 UNK         0.3141 
     92 H92       -70.8166   24.8283  -74.1902 H         1 UNK         0.0743 
     93 H93       -73.0661   25.3331  -72.1830 H         1 UNK         0.0784 
     94 H94       -72.2682   23.7801  -72.4640 H         1 UNK         0.0784 
     95 H95       -71.3621   25.1365  -71.8263 H         1 UNK         0.0784 
     96 H96       -72.2455   24.3864  -75.8015 H         1 UNK         0.3213 
     97 H97       -73.9621   23.9383  -76.9737 H         1 UNK         0.0855 
     98 H98       -76.6877   24.0813  -75.5929 H         1 UNK         0.0814 
     99 H99       -75.6321   22.6805  -75.6051 H         1 UNK         0.0814 
    100 H100      -76.3343   23.2617  -77.1086 H         1 UNK         0.0814 
    101 H101      -76.0684   25.9512  -77.0499 H         1 UNK         0.3105 
    102 H102      -74.0297   28.6250  -78.1164 H         1 UNK         0.0547 
    103 H103      -73.9906   27.3665  -80.2793 H         1 UNK         0.0837 
    104 H104      -75.6820   26.9357  -80.0713 H         1 UNK         0.0837 
    105 H105      -75.2150   28.6231  -80.2938 H         1 UNK         0.0837 
    106 H106      -76.8368   28.3189  -78.3534 H         1 UNK         0.3020 
    107 H107      -77.7708   28.6962  -74.9872 H         1 UNK         0.1245 
    108 H108      -79.0033   30.7282  -75.8149 H         1 UNK         0.0781 
    109 H109      -77.9007   30.8627  -77.1485 H         1 UNK         0.0781 
    110 H110      -78.9039   32.1577  -73.8948 H         1 UNK         0.0836 
    111 H111      -77.4836   32.8156  -73.1263 H         1 UNK         0.0836 
    112 H112      -79.5290   28.8327  -77.0429 H         1 UNK         0.3022 
    113 H113      -80.9412   26.9555  -77.2734 H         1 UNK         0.0747 
    114 H114      -80.8907   26.3811  -79.7308 H         1 UNK         0.0793 
    115 H115      -79.8663   27.7694  -79.4293 H         1 UNK         0.0793 
    116 H116      -79.1412   26.1844  -79.6641 H         1 UNK         0.0793 
    117 H117      -79.3508   24.6462  -76.9602 H         1 UNK         0.3047 
    118 H118      -81.9399   22.2100  -77.5741 H         1 UNK         0.0822 
    119 H119      -79.8109   21.0174  -77.8669 H         1 UNK         0.0807 
    120 H120      -78.8934   22.5175  -77.7783 H         1 UNK         0.0807 
    121 H121      -79.9716   22.2196  -79.1361 H         1 UNK         0.0807 
    122 H122      -79.8682   22.4373  -75.5259 H         1 UNK         0.2946 
    123 H123      -82.2419   22.6900  -72.8605 H         1 UNK         0.1144 
    124 H124      -81.8672   20.3237  -73.4864 H         1 UNK         0.0793 
    125 H125      -80.8359   20.7868  -72.1427 H         1 UNK         0.0793 
    126 H126      -80.1610   20.6304  -73.7624 H         1 UNK         0.0793 
    127 H127      -80.6022   24.0050  -72.2839 H         1 UNK         0.2896 
@<TRIPOS>BOND
     1    1    2 1    
     2    1   67 1    
     3    1   68 1    
     4    1   69 1    
     5    2    3 2    
     6    2    4 am   BACKBONE|DICT|INTERRES
     7    4    5 1    
     8    4   70 1    
     9    5    6 1    
    10    5   65 1    
    11    5   71 1    
    12    6    7 1    
    13    6   72 1    
    14    6   73 1    
    15    7    8 1    
    16    8    9 1    
    17    8   74 1    
    18    8   75 1    
    19    9   10 ar   
    20    9   14 ar   
    21   10   11 ar   
    22   10   76 1    
    23   11   12 ar   
    24   11   48 1    
    25   12   13 ar   
    26   12   77 1    
    27   13   14 ar   
    28   13   15 1    
    29   14   78 1    
    30   15   16 1    
    31   15   79 1    
    32   15   80 1    
    33   16   17 1    
    34   17   18 1    
    35   17   81 1    
    36   17   82 1    
    37   18   19 1    
    38   18   22 1    
    39   18   83 1    
    40   19   20 am   BACKBONE|DICT|INTERRES
    41   19   21 2    
    42   20   84 1    
    43   20   85 1    
    44   22   23 am   BACKBONE|DICT|INTERRES
    45   22   86 1    
    46   23   24 2    
    47   23   25 1    
    48   25   26 1    
    49   25   27 1    
    50   25   87 1    
    51   26   88 1    
    52   26   89 1    
    53   26   90 1    
    54   27   28 am   BACKBONE|DICT|INTERRES
    55   27   91 1    
    56   28   29 2    
    57   28   30 1    
    58   30   31 1    
    59   30   32 1    
    60   30   92 1    
    61   31   93 1    
    62   31   94 1    
    63   31   95 1    
    64   32   33 am   BACKBONE|DICT|INTERRES
    65   32   96 1    
    66   33   34 2    
    67   33   35 1    
    68   35   36 1    
    69   35   37 1    
    70   35   97 1    
    71   36   98 1    
    72   36   99 1    
    73   36  100 1    
    74   37   38 am   BACKBONE|DICT|INTERRES
    75   37  101 1    
    76   38   39 2    
    77   38   40 1    
    78   40   41 1    
    79   40   42 1    
    80   40  102 1    
    81   41  103 1    
    82   41  104 1    
    83   41  105 1    
    84   42   43 am   BACKBONE|DICT|INTERRES
    85   42  106 1    
    86   43   44 2    
    87   43   45 1    
    88   45   46 1    
    89   45   49 1    
    90   45  107 1    
    91   46   47 1    
    92   46  108 1    
    93   46  109 1    
    94   47   48 1    
    95   48  110 1    
    96   48  111 1    
    97   49   50 am   BACKBONE|DICT|INTERRES
    98   49  112 1    
    99   50   51 2    
   100   50   52 1    
   101   52   53 1    
   102   52   54 1    
   103   52  113 1    
   104   53  114 1    
   105   53  115 1    
   106   53  116 1    
   107   54   55 am   BACKBONE|DICT|INTERRES
   108   54  117 1    
   109   55   56 2    
   110   55   57 1    
   111   57   58 1    
   112   57   59 1    
   113   57  118 1    
   114   58  119 1    
   115   58  120 1    
   116   58  121 1    
   117   59   60 am   BACKBONE|DICT|INTERRES
   118   59  122 1    
   119   60   61 2    
   120   60   62 1    
   121   62   63 1    
   122   62   64 1    
   123   62  123 1    
   124   63  124 1    
   125   63  125 1    
   126   63  126 1    
   127   64   65 am   BACKBONE|DICT|INTERRES
   128   64  127 1    
   129   65   66 2    
@<TRIPOS>SUBSTRUCTURE
     1 UNK         1 GROUP             0       ****    0 ROOT    
