@<TRIPOS>MOLECULE
3R135
127   129    1
SMALL
USER_CHARGES


@<TRIPOS>ATOM
      1 CA        -83.2914   29.0696  -73.7815 C.3       0 UNK        -0.1998 
      2 C         -83.9644   27.8019  -73.2600 C.2       0 UNK         0.4909 
      3 O         -85.1806   27.6716  -73.3810 O.2       0 UNK        -0.5240 
      4 N         -83.2313   26.8402  -72.6774 N.am      1 UNK        -0.4739 
      5 CA        -81.7731   26.8289  -72.4803 C.3       1 UNK         0.0864 
      6 C6        -81.3980   26.0343  -71.2039 C.3       11 UNK        -0.0881 
      7 S7        -79.7871   26.4470  -70.4433 S.3       11 UNK        -0.2682 
      8 C8        -79.8211   28.2584  -70.2117 C.3       11 UNK         0.0289 
      9 C9        -78.8069   28.9514  -71.1159 C.ar      11 UNK        -0.0687 
     10 C10       -79.2003   29.6081  -72.2872 C.ar      11 UNK        -0.0823 
     11 C11       -78.2556   30.2302  -73.1115 C.ar      11 UNK        -0.0830 
     12 C12       -76.9053   30.2036  -72.7455 C.ar      11 UNK        -0.1021 
     13 C13       -76.4963   29.5572  -71.5743 C.ar      11 UNK        -0.0753 
     14 C14       -77.4556   28.9431  -70.7623 C.ar      11 UNK        -0.0933 
     15 C15       -75.0233   29.5474  -71.1814 C.3       11 UNK         0.0166 
     16 S16       -74.4455   27.8910  -70.6876 S.3       11 UNK        -0.2615 
     17 C17       -72.6333   28.0757  -70.8030 C.3       11 UNK        -0.0865 
     18 CA        -72.0296   27.3736  -72.0531 C.3       10 UNK         0.0862 
     19 C         -72.0513   25.8242  -71.9284 C.2       10 UNK         0.5551 
     20 N         -72.7467   25.0843  -72.7819 N.am      10 UNK        -0.7319 
     21 O         -71.3997   25.2775  -71.0413 O.2       10 UNK        -0.5018 
     22 N         -72.5689   27.8972  -73.3183 N.am      10 UNK        -0.4509 
     23 C         -72.2840   29.1051  -73.8140 C.2       10 UNK         0.4899 
     24 O         -71.5347   29.9144  -73.2629 O.2       10 UNK        -0.4839 
     25 CA        -72.9579   29.4634  -75.1503 C.3       9 UNK         0.0222 
     26 CB        -72.8152   30.9552  -75.5174 C.3       9 UNK        -0.1966 
     27 N         -72.5055   28.6133  -76.2574 N.am      9 UNK        -0.4218 
     28 C         -71.2426   28.4230  -76.6744 C.2       9 UNK         0.5020 
     29 O         -70.2606   28.9793  -76.1781 O.2       9 UNK        -0.5274 
     30 CA        -71.0442   27.4661  -77.8686 C.3       8 UNK         0.0270 
     31 CB        -69.5758   27.0218  -78.0444 C.3       8 UNK        -0.1976 
     32 N         -71.9289   26.2959  -77.8486 N.am      8 UNK        -0.4313 
     33 C         -72.0466   25.3604  -76.8956 C.2       8 UNK         0.5041 
     34 O         -71.4088   25.3732  -75.8423 O.2       8 UNK        -0.5577 
     35 CA        -73.0448   24.2160  -77.1827 C.3       7 UNK         0.0284 
     36 CB        -73.1989   23.2478  -75.9959 C.3       7 UNK        -0.1958 
     37 N         -74.3720   24.7047  -77.5707 N.am      7 UNK        -0.4454 
     38 C         -74.6901   25.2414  -78.7567 C.2       7 UNK         0.5089 
     39 O         -73.8939   25.3425  -79.6912 O.2       7 UNK        -0.5125 
     40 CA        -76.1069   25.8137  -78.9152 C.3       6 UNK         0.0408 
     41 CB        -77.0613   24.7289  -79.4365 C.3       6 UNK        -0.1791 
     42 N         -76.6417   26.3982  -77.6812 N.am      6 UNK        -0.4762 
     43 C         -76.1266   27.4626  -77.0442 C.2       6 UNK         0.5007 
     44 O         -75.1315   28.0755  -77.4343 O.2       6 UNK        -0.5032 
     45 CA        -76.8047   27.8732  -75.7204 C.3       5 UNK         0.0783 
     46 C46       -78.1180   28.6676  -75.9479 C.3       11 UNK        -0.0857 
     47 S47       -77.8165   30.4646  -75.8873 S.3       11 UNK        -0.2512 
     48 C48       -78.7118   30.9606  -74.3735 C.3       11 UNK         0.0225 
     49 N         -76.9910   26.7251  -74.8361 N.am      5 UNK        -0.4615 
     50 C         -75.9905   26.0220  -74.2871 C.2       4 UNK         0.5053 
     51 O         -74.7957   26.2982  -74.4200 O.2       4 UNK        -0.5105 
     52 CA        -76.3912   24.7794  -73.4789 C.3       4 UNK         0.0263 
     53 CB        -76.6588   25.1506  -72.0153 C.3       4 UNK        -0.1981 
     54 N         -77.5688   24.1161  -74.0424 N.am      4 UNK        -0.4224 
     55 C         -77.5473   23.3888  -75.1681 C.2       3 UNK         0.4895 
     56 O         -76.5347   23.1947  -75.8408 O.2       3 UNK        -0.5091 
     57 CA        -78.8895   22.8038  -75.6378 C.3       3 UNK         0.0250 
     58 CB        -79.2634   21.5614  -74.8133 C.3       3 UNK        -0.1996 
     59 N         -79.9871   23.7740  -75.5961 N.am      3 UNK        -0.4254 
     60 C         -80.0325   24.8901  -76.3362 C.2       2 UNK         0.5004 
     61 O         -79.1476   25.2347  -77.1158 O.2       2 UNK        -0.5226 
     62 CA        -81.2560   25.7993  -76.1634 C.3       2 UNK         0.0269 
     63 CB        -82.4143   25.3202  -77.0526 C.3       2 UNK        -0.1926 
     64 N         -81.7312   25.9569  -74.7854 N.am      2 UNK        -0.4687 
     65 C         -80.9985   26.3771  -73.7420 C.2       1 UNK         0.5165 
     66 O         -79.7713   26.4702  -73.7725 O.2       1 UNK        -0.5079 
     67 H67       -84.0075   29.6801  -74.3315 H         1 UNK         0.0900 
     68 H68       -82.4711   28.8397  -74.4602 H         1 UNK         0.0900 
     69 H69       -82.9120   29.6709  -72.9559 H         1 UNK         0.0900 
     70 H70       -83.7141   26.0184  -72.3406 H         1 UNK         0.2959 
     71 H71       -81.4740   27.8583  -72.3201 H         1 UNK         0.1079 
     72 H72       -82.1477   26.2083  -70.4299 H         1 UNK         0.0837 
     73 H73       -81.4250   24.9604  -71.3978 H         1 UNK         0.0837 
     74 H74       -79.5705   28.4717  -69.1715 H         1 UNK         0.0685 
     75 H75       -80.8245   28.6596  -70.3544 H         1 UNK         0.0685 
     76 H76       -80.2440   29.6502  -72.5576 H         1 UNK         0.1434 
     77 H77       -76.1741   30.6929  -73.3744 H         1 UNK         0.1329 
     78 H78       -77.1487   28.4439  -69.8535 H         1 UNK         0.1335 
     79 H79       -74.8675   30.2423  -70.3554 H         1 UNK         0.0680 
     80 H80       -74.4138   29.9060  -72.0108 H         1 UNK         0.0680 
     81 H81       -72.3739   29.1351  -70.8040 H         1 UNK         0.1032 
     82 H82       -72.1880   27.6768  -69.8898 H         1 UNK         0.1032 
     83 H83       -70.9642   27.6129  -72.0627 H         1 UNK         0.0461 
     84 H84       -73.3180   25.5031  -73.5053 H         1 UNK         0.3453 
     85 H85       -72.7151   24.0832  -72.6850 H         1 UNK         0.3453 
     86 H86       -73.2161   27.2936  -73.8151 H         1 UNK         0.2984 
     87 H87       -74.0199   29.2652  -75.0194 H         1 UNK         0.0554 
     88 H88       -73.3680   31.1927  -76.4262 H         1 UNK         0.0847 
     89 H89       -71.7738   31.2384  -75.6739 H         1 UNK         0.0847 
     90 H90       -73.2091   31.5907  -74.7233 H         1 UNK         0.0847 
     91 H91       -73.2503   28.1294  -76.7509 H         1 UNK         0.3141 
     92 H92       -71.3215   28.0374  -78.7557 H         1 UNK         0.0743 
     93 H93       -68.9198   27.8805  -78.1931 H         1 UNK         0.0784 
     94 H94       -69.2120   26.4813  -77.1697 H         1 UNK         0.0784 
     95 H95       -69.4581   26.3733  -78.9125 H         1 UNK         0.0784 
     96 H96       -72.5192   26.1723  -78.6684 H         1 UNK         0.3213 
     97 H97       -72.6325   23.6454  -78.0177 H         1 UNK         0.0855 
     98 H98       -73.6395   23.7435  -75.1317 H         1 UNK         0.0814 
     99 H99       -72.2343   22.8426  -75.6875 H         1 UNK         0.0814 
    100 H100      -73.8363   22.4023  -76.2550 H         1 UNK         0.0814 
    101 H101      -75.0965   24.6462  -76.8653 H         1 UNK         0.3105 
    102 H102      -76.0582   26.6097  -79.6609 H         1 UNK         0.0547 
    103 H103      -78.0466   25.1402  -79.6559 H         1 UNK         0.0837 
    104 H104      -76.6844   24.2840  -80.3584 H         1 UNK         0.0837 
    105 H105      -77.1887   23.9234  -78.7118 H         1 UNK         0.0837 
    106 H106      -77.4845   25.9603  -77.3102 H         1 UNK         0.3020 
    107 H107      -76.1031   28.5199  -75.1936 H         1 UNK         0.1245 
    108 H108      -78.8560   28.4242  -75.1843 H         1 UNK         0.0781 
    109 H109      -78.5970   28.4146  -76.8960 H         1 UNK         0.0781 
    110 H110      -79.7793   30.8112  -74.5428 H         1 UNK         0.0836 
    111 H111      -78.5753   32.0323  -74.2237 H         1 UNK         0.0836 
    112 H112      -77.9479   26.4660  -74.6175 H         1 UNK         0.3022 
    113 H113      -75.5588   24.0732  -73.5032 H         1 UNK         0.0747 
    114 H114      -77.0703   24.3131  -71.4521 H         1 UNK         0.0793 
    115 H115      -75.7331   25.4454  -71.5225 H         1 UNK         0.0793 
    116 H116      -77.3518   25.9886  -71.9350 H         1 UNK         0.0793 
    117 H117      -78.4537   24.2859  -73.5851 H         1 UNK         0.3047 
    118 H118      -78.7628   22.4943  -76.6777 H         1 UNK         0.0822 
    119 H119      -78.4628   20.8207  -74.8405 H         1 UNK         0.0807 
    120 H120      -80.1597   21.0803  -75.2056 H         1 UNK         0.0807 
    121 H121      -79.4448   21.8068  -73.7661 H         1 UNK         0.0807 
    122 H122      -80.7568   23.5799  -74.9722 H         1 UNK         0.2946 
    123 H123      -80.9561   26.7912  -76.5090 H         1 UNK         0.1144 
    124 H124      -82.0920   25.2108  -78.0894 H         1 UNK         0.0793 
    125 H125      -83.2404   26.0316  -77.0471 H         1 UNK         0.0793 
    126 H126      -82.8008   24.3534  -76.7276 H         1 UNK         0.0793 
    127 H127      -82.7298   25.8889  -74.6485 H         1 UNK         0.2896 
@<TRIPOS>BOND
     1    1    2 1    
     2    1   67 1    
     3    1   68 1    
     4    1   69 1    
     5    2    3 2    
     6    2    4 am   BACKBONE|DICT|INTERRES
     7    4    5 1    
     8    4   70 1    
     9    5    6 1    
    10    5   65 1    
    11    5   71 1    
    12    6    7 1    
    13    6   72 1    
    14    6   73 1    
    15    7    8 1    
    16    8    9 1    
    17    8   74 1    
    18    8   75 1    
    19    9   10 ar   
    20    9   14 ar   
    21   10   11 ar   
    22   10   76 1    
    23   11   12 ar   
    24   11   48 1    
    25   12   13 ar   
    26   12   77 1    
    27   13   14 ar   
    28   13   15 1    
    29   14   78 1    
    30   15   16 1    
    31   15   79 1    
    32   15   80 1    
    33   16   17 1    
    34   17   18 1    
    35   17   81 1    
    36   17   82 1    
    37   18   19 1    
    38   18   22 1    
    39   18   83 1    
    40   19   20 am   BACKBONE|DICT|INTERRES
    41   19   21 2    
    42   20   84 1    
    43   20   85 1    
    44   22   23 am   BACKBONE|DICT|INTERRES
    45   22   86 1    
    46   23   24 2    
    47   23   25 1    
    48   25   26 1    
    49   25   27 1    
    50   25   87 1    
    51   26   88 1    
    52   26   89 1    
    53   26   90 1    
    54   27   28 am   BACKBONE|DICT|INTERRES
    55   27   91 1    
    56   28   29 2    
    57   28   30 1    
    58   30   31 1    
    59   30   32 1    
    60   30   92 1    
    61   31   93 1    
    62   31   94 1    
    63   31   95 1    
    64   32   33 am   BACKBONE|DICT|INTERRES
    65   32   96 1    
    66   33   34 2    
    67   33   35 1    
    68   35   36 1    
    69   35   37 1    
    70   35   97 1    
    71   36   98 1    
    72   36   99 1    
    73   36  100 1    
    74   37   38 am   BACKBONE|DICT|INTERRES
    75   37  101 1    
    76   38   39 2    
    77   38   40 1    
    78   40   41 1    
    79   40   42 1    
    80   40  102 1    
    81   41  103 1    
    82   41  104 1    
    83   41  105 1    
    84   42   43 am   BACKBONE|DICT|INTERRES
    85   42  106 1    
    86   43   44 2    
    87   43   45 1    
    88   45   46 1    
    89   45   49 1    
    90   45  107 1    
    91   46   47 1    
    92   46  108 1    
    93   46  109 1    
    94   47   48 1    
    95   48  110 1    
    96   48  111 1    
    97   49   50 am   BACKBONE|DICT|INTERRES
    98   49  112 1    
    99   50   51 2    
   100   50   52 1    
   101   52   53 1    
   102   52   54 1    
   103   52  113 1    
   104   53  114 1    
   105   53  115 1    
   106   53  116 1    
   107   54   55 am   BACKBONE|DICT|INTERRES
   108   54  117 1    
   109   55   56 2    
   110   55   57 1    
   111   57   58 1    
   112   57   59 1    
   113   57  118 1    
   114   58  119 1    
   115   58  120 1    
   116   58  121 1    
   117   59   60 am   BACKBONE|DICT|INTERRES
   118   59  122 1    
   119   60   61 2    
   120   60   62 1    
   121   62   63 1    
   122   62   64 1    
   123   62  123 1    
   124   63  124 1    
   125   63  125 1    
   126   63  126 1    
   127   64   65 am   BACKBONE|DICT|INTERRES
   128   64  127 1    
   129   65   66 2    
@<TRIPOS>SUBSTRUCTURE
     1 UNK         1 GROUP             0       ****    0 ROOT    
