@<TRIPOS>MOLECULE
3R135
127   129    1
SMALL
USER_CHARGES


@<TRIPOS>ATOM
      1 CA        -83.4828   28.7392  -73.5769 C.3       0 UNK        -0.1998 
      2 C         -82.2682   28.9403  -74.4710 C.2       0 UNK         0.4909 
      3 O         -82.3965   29.4982  -75.5619 O.2       0 UNK        -0.5240 
      4 N         -81.0909   28.4985  -74.0118 N.am      1 UNK        -0.4739 
      5 CA        -79.8304   28.5452  -74.7620 C.3       1 UNK         0.0864 
      6 C6        -78.6058   28.4196  -73.8213 C.3       11 UNK        -0.0881 
      7 S7        -78.4041   29.9386  -72.8284 S.3       11 UNK        -0.2682 
      8 C8        -78.4061   29.2986  -71.1254 C.3       11 UNK         0.0289 
      9 C9        -77.0747   28.6499  -70.7811 C.ar      11 UNK        -0.0687 
     10 C10       -76.9708   27.2628  -70.6566 C.ar      11 UNK        -0.0823 
     11 C11       -75.7380   26.6713  -70.3670 C.ar      11 UNK        -0.0830 
     12 C12       -74.6106   27.4787  -70.1921 C.ar      11 UNK        -0.1021 
     13 C13       -74.6961   28.8688  -70.3101 C.ar      11 UNK        -0.0753 
     14 C14       -75.9402   29.4455  -70.5977 C.ar      11 UNK        -0.0933 
     15 C15       -73.4145   29.6918  -70.1652 C.3       11 UNK         0.0166 
     16 S16       -73.6692   31.4513  -69.7441 S.3       11 UNK        -0.2615 
     17 C17       -72.9725   32.3152  -71.1951 C.3       11 UNK        -0.0865 
     18 CA        -74.0450   32.6555  -72.2736 C.3       10 UNK         0.0862 
     19 C         -73.6110   33.8162  -73.2251 C.2       10 UNK         0.5551 
     20 N         -74.0622   33.8484  -74.4734 N.am      10 UNK        -0.7319 
     21 O         -72.8858   34.7226  -72.8217 O.2       10 UNK        -0.5018 
     22 N         -74.5648   31.4574  -72.9632 N.am      10 UNK        -0.4509 
     23 C         -73.8747   30.6563  -73.7872 C.2       10 UNK         0.4899 
     24 O         -72.6859   30.8169  -74.0738 O.2       10 UNK        -0.4839 
     25 CA        -74.6842   29.5219  -74.4407 C.3       9 UNK         0.0222 
     26 CB        -75.6344   30.0886  -75.5111 C.3       9 UNK        -0.1966 
     27 N         -73.8351   28.5151  -75.0776 N.am      9 UNK        -0.4218 
     28 C         -73.0712   27.6108  -74.4534 C.2       9 UNK         0.5020 
     29 O         -72.9862   27.5154  -73.2290 O.2       9 UNK        -0.5274 
     30 CA        -72.2914   26.6380  -75.3652 C.3       8 UNK         0.0270 
     31 CB        -71.5447   25.5500  -74.5704 C.3       8 UNK        -0.1976 
     32 N         -73.1642   26.0049  -76.3663 N.am      8 UNK        -0.4313 
     33 C         -73.5440   26.5859  -77.5155 C.2       8 UNK         0.5041 
     34 O         -73.1695   27.7156  -77.8358 O.2       8 UNK        -0.5577 
     35 CA        -74.5564   25.8714  -78.4317 C.3       7 UNK         0.0284 
     36 CB        -74.0871   25.8274  -79.9012 C.3       7 UNK        -0.1958 
     37 N         -75.0124   24.5606  -77.9589 N.am      7 UNK        -0.4454 
     38 C         -74.3554   23.3928  -77.9552 C.2       7 UNK         0.5089 
     39 O         -73.2171   23.2375  -78.3993 O.2       7 UNK        -0.5125 
     40 CA        -75.1047   22.2098  -77.2992 C.3       6 UNK         0.0408 
     41 CB        -74.1838   21.0026  -77.0265 C.3       6 UNK        -0.1791 
     42 N         -75.8275   22.5834  -76.0719 N.am      6 UNK        -0.4762 
     43 C         -75.3116   23.2180  -75.0049 C.2       6 UNK         0.5007 
     44 O         -74.1326   23.5628  -74.9414 O.2       6 UNK        -0.5032 
     45 CA        -76.2639   23.5507  -73.8390 C.3       5 UNK         0.0783 
     46 C46       -75.8596   24.8331  -73.0649 C.3       11 UNK        -0.0857 
     47 S47       -74.7136   24.4691  -71.6914 S.3       11 UNK        -0.2512 
     48 C48       -75.6126   25.1581  -70.2659 C.3       11 UNK         0.0225 
     49 N         -77.6536   23.6119  -74.2952 N.am      5 UNK        -0.4615 
     50 C         -78.6905   23.0775  -73.6356 C.2       4 UNK         0.5053 
     51 O         -78.5857   22.5034  -72.5515 O.2       4 UNK        -0.5105 
     52 CA        -80.0848   23.1879  -74.2819 C.3       4 UNK         0.0263 
     53 CB        -80.9177   24.2634  -73.5648 C.3       4 UNK        -0.1981 
     54 N         -80.0457   23.4675  -75.7219 N.am      4 UNK        -0.4224 
     55 C         -79.5752   22.6105  -76.6435 C.2       3 UNK         0.4895 
     56 O         -79.1760   21.4774  -76.3742 O.2       3 UNK        -0.5091 
     57 CA        -79.4787   23.0914  -78.1033 C.3       3 UNK         0.0250 
     58 CB        -80.6327   22.5092  -78.9352 C.3       3 UNK        -0.1996 
     59 N         -79.4509   24.5459  -78.2772 N.am      3 UNK        -0.4254 
     60 C         -78.5449   25.3865  -77.7599 C.2       2 UNK         0.5004 
     61 O         -77.6170   25.0266  -77.0308 O.2       2 UNK        -0.5226 
     62 CA        -78.7177   26.8865  -78.0732 C.3       2 UNK         0.0269 
     63 CB        -79.8460   27.1962  -79.0840 C.3       2 UNK        -0.1926 
     64 N         -78.9055   27.6927  -76.8604 N.am      2 UNK        -0.4687 
     65 C         -79.8023   27.4845  -75.8832 C.2       1 UNK         0.5165 
     66 O         -80.5695   26.5174  -75.8485 O.2       1 UNK        -0.5079 
     67 H67       -83.9382   29.7005  -73.3404 H         1 UNK         0.0900 
     68 H68       -84.2251   28.1257  -74.0866 H         1 UNK         0.0900 
     69 H69       -83.2225   28.2475  -72.6397 H         1 UNK         0.0900 
     70 H70       -81.0508   28.0362  -73.1160 H         1 UNK         0.2959 
     71 H71       -79.7794   29.5168  -75.2599 H         1 UNK         0.1079 
     72 H72       -77.6816   28.2742  -74.3820 H         1 UNK         0.0837 
     73 H73       -78.7006   27.5450  -73.1755 H         1 UNK         0.0837 
     74 H74       -79.2354   28.6023  -70.9915 H         1 UNK         0.0685 
     75 H75       -78.5881   30.1267  -70.4389 H         1 UNK         0.0685 
     76 H76       -77.8455   26.6433  -70.7993 H         1 UNK         0.1434 
     77 H77       -73.6536   27.0160  -69.9915 H         1 UNK         0.1329 
     78 H78       -76.0367   30.5160  -70.7029 H         1 UNK         0.1335 
     79 H79       -72.8452   29.6016  -71.0909 H         1 UNK         0.0680 
     80 H80       -72.7926   29.2543  -69.3827 H         1 UNK         0.0680 
     81 H81       -72.5211   33.2276  -70.8019 H         1 UNK         0.1032 
     82 H82       -72.1446   31.7479  -71.6220 H         1 UNK         0.1032 
     83 H83       -74.9043   33.0705  -71.7455 H         1 UNK         0.0461 
     84 H84       -74.6674   33.1208  -74.8162 H         1 UNK         0.3453 
     85 H85       -73.7881   34.6067  -75.0780 H         1 UNK         0.3453 
     86 H86       -75.5445   31.2631  -72.8149 H         1 UNK         0.2984 
     87 H87       -75.2725   29.0271  -73.6645 H         1 UNK         0.0554 
     88 H88       -76.3668   30.7682  -75.0740 H         1 UNK         0.0847 
     89 H89       -76.1896   29.2954  -76.0106 H         1 UNK         0.0847 
     90 H90       -75.0910   30.6436  -76.2772 H         1 UNK         0.0847 
     91 H91       -73.7719   28.5385  -76.0904 H         1 UNK         0.3141 
     92 H92       -71.5349   27.2295  -75.8852 H         1 UNK         0.0743 
     93 H93       -70.7891   25.9946  -73.9216 H         1 UNK         0.0784 
     94 H94       -71.0345   24.8499  -75.2320 H         1 UNK         0.0784 
     95 H95       -72.2198   24.9799  -73.9316 H         1 UNK         0.0784 
     96 H96       -73.5382   25.0933  -76.1178 H         1 UNK         0.3213 
     97 H97       -75.4463   26.5005  -78.4056 H         1 UNK         0.0855 
     98 H98       -73.1446   25.2912  -80.0132 H         1 UNK         0.0814 
     99 H99       -73.9291   26.8343  -80.2896 H         1 UNK         0.0814 
    100 H100      -74.8271   25.3476  -80.5416 H         1 UNK         0.0814 
    101 H101      -75.9400   24.5715  -77.5349 H         1 UNK         0.3105 
    102 H102      -75.8623   21.8938  -78.0178 H         1 UNK         0.0547 
    103 H103      -74.7385   20.1689  -76.5964 H         1 UNK         0.0837 
    104 H104      -73.3763   21.2586  -76.3395 H         1 UNK         0.0837 
    105 H105      -73.7249   20.6429  -77.9482 H         1 UNK         0.0837 
    106 H106      -76.8053   22.3263  -76.0415 H         1 UNK         0.3020 
    107 H107      -76.1677   22.6950  -73.1663 H         1 UNK         0.1245 
    108 H108      -75.4128   25.5858  -73.7176 H         1 UNK         0.0781 
    109 H109      -76.7494   25.3084  -72.6528 H         1 UNK         0.0781 
    110 H110      -75.0775   24.9006  -69.3507 H         1 UNK         0.0836 
    111 H111      -76.5929   24.6844  -70.1915 H         1 UNK         0.0836 
    112 H112      -77.8121   24.0879  -75.1780 H         1 UNK         0.3022 
    113 H113      -80.5843   22.2263  -74.1462 H         1 UNK         0.0747 
    114 H114      -81.8977   24.3865  -74.0262 H         1 UNK         0.0793 
    115 H115      -81.0820   23.9937  -72.5208 H         1 UNK         0.0793 
    116 H116      -80.4177   25.2322  -73.5710 H         1 UNK         0.0793 
    117 H117      -80.3241   24.4004  -76.0092 H         1 UNK         0.3047 
    118 H118      -78.5400   22.7023  -78.5032 H         1 UNK         0.0822 
    119 H119      -80.5217   22.7488  -79.9929 H         1 UNK         0.0807 
    120 H120      -81.6003   22.8880  -78.6032 H         1 UNK         0.0807 
    121 H121      -80.6638   21.4215  -78.8545 H         1 UNK         0.0807 
    122 H122      -80.1941   24.9427  -78.8337 H         1 UNK         0.2946 
    123 H123      -77.7774   27.2072  -78.5233 H         1 UNK         0.1144 
    124 H124      -79.8694   28.2592  -79.3248 H         1 UNK         0.0793 
    125 H125      -80.8311   26.9301  -78.6981 H         1 UNK         0.0793 
    126 H126      -79.6964   26.6655  -80.0255 H         1 UNK         0.0793 
    127 H127      -78.3029   28.4997  -76.7862 H         1 UNK         0.2896 
@<TRIPOS>BOND
     1    1    2 1    
     2    1   67 1    
     3    1   68 1    
     4    1   69 1    
     5    2    3 2    
     6    2    4 am   BACKBONE|DICT|INTERRES
     7    4    5 1    
     8    4   70 1    
     9    5    6 1    
    10    5   65 1    
    11    5   71 1    
    12    6    7 1    
    13    6   72 1    
    14    6   73 1    
    15    7    8 1    
    16    8    9 1    
    17    8   74 1    
    18    8   75 1    
    19    9   10 ar   
    20    9   14 ar   
    21   10   11 ar   
    22   10   76 1    
    23   11   12 ar   
    24   11   48 1    
    25   12   13 ar   
    26   12   77 1    
    27   13   14 ar   
    28   13   15 1    
    29   14   78 1    
    30   15   16 1    
    31   15   79 1    
    32   15   80 1    
    33   16   17 1    
    34   17   18 1    
    35   17   81 1    
    36   17   82 1    
    37   18   19 1    
    38   18   22 1    
    39   18   83 1    
    40   19   20 am   BACKBONE|DICT|INTERRES
    41   19   21 2    
    42   20   84 1    
    43   20   85 1    
    44   22   23 am   BACKBONE|DICT|INTERRES
    45   22   86 1    
    46   23   24 2    
    47   23   25 1    
    48   25   26 1    
    49   25   27 1    
    50   25   87 1    
    51   26   88 1    
    52   26   89 1    
    53   26   90 1    
    54   27   28 am   BACKBONE|DICT|INTERRES
    55   27   91 1    
    56   28   29 2    
    57   28   30 1    
    58   30   31 1    
    59   30   32 1    
    60   30   92 1    
    61   31   93 1    
    62   31   94 1    
    63   31   95 1    
    64   32   33 am   BACKBONE|DICT|INTERRES
    65   32   96 1    
    66   33   34 2    
    67   33   35 1    
    68   35   36 1    
    69   35   37 1    
    70   35   97 1    
    71   36   98 1    
    72   36   99 1    
    73   36  100 1    
    74   37   38 am   BACKBONE|DICT|INTERRES
    75   37  101 1    
    76   38   39 2    
    77   38   40 1    
    78   40   41 1    
    79   40   42 1    
    80   40  102 1    
    81   41  103 1    
    82   41  104 1    
    83   41  105 1    
    84   42   43 am   BACKBONE|DICT|INTERRES
    85   42  106 1    
    86   43   44 2    
    87   43   45 1    
    88   45   46 1    
    89   45   49 1    
    90   45  107 1    
    91   46   47 1    
    92   46  108 1    
    93   46  109 1    
    94   47   48 1    
    95   48  110 1    
    96   48  111 1    
    97   49   50 am   BACKBONE|DICT|INTERRES
    98   49  112 1    
    99   50   51 2    
   100   50   52 1    
   101   52   53 1    
   102   52   54 1    
   103   52  113 1    
   104   53  114 1    
   105   53  115 1    
   106   53  116 1    
   107   54   55 am   BACKBONE|DICT|INTERRES
   108   54  117 1    
   109   55   56 2    
   110   55   57 1    
   111   57   58 1    
   112   57   59 1    
   113   57  118 1    
   114   58  119 1    
   115   58  120 1    
   116   58  121 1    
   117   59   60 am   BACKBONE|DICT|INTERRES
   118   59  122 1    
   119   60   61 2    
   120   60   62 1    
   121   62   63 1    
   122   62   64 1    
   123   62  123 1    
   124   63  124 1    
   125   63  125 1    
   126   63  126 1    
   127   64   65 am   BACKBONE|DICT|INTERRES
   128   64  127 1    
   129   65   66 2    
@<TRIPOS>SUBSTRUCTURE
     1 UNK         1 GROUP             0       ****    0 ROOT    
