@<TRIPOS>MOLECULE
3R135
127   129    1
SMALL
USER_CHARGES


@<TRIPOS>ATOM
      1 CA        -80.1708   25.6206  -69.4512 C.3       0 UNK        -0.1998 
      2 C         -80.5570   25.5520  -70.9204 C.2       0 UNK         0.4909 
      3 O         -79.6983   25.2760  -71.7568 O.2       0 UNK        -0.5240 
      4 N         -81.8456   25.7793  -71.2250 N.am      1 UNK        -0.4739 
      5 CA        -82.4838   25.8547  -72.5554 C.3       1 UNK         0.0864 
      6 C6        -82.3693   27.2595  -73.2174 C.3       11 UNK        -0.0881 
      7 S7        -80.6902   27.7459  -73.7463 S.3       11 UNK        -0.2682 
      8 C8        -80.2591   28.9511  -72.4617 C.3       11 UNK         0.0289 
      9 C9        -78.7858   29.3129  -72.5300 C.ar      11 UNK        -0.0687 
     10 C10       -78.3444   30.3034  -73.4112 C.ar      11 UNK        -0.0823 
     11 C11       -76.9939   30.6635  -73.4558 C.ar      11 UNK        -0.0830 
     12 C12       -76.0868   30.0321  -72.5991 C.ar      11 UNK        -0.1021 
     13 C13       -76.5181   29.0387  -71.7125 C.ar      11 UNK        -0.0753 
     14 C14       -77.8671   28.6743  -71.6929 C.ar      11 UNK        -0.0933 
     15 C15       -75.5417   28.4004  -70.7360 C.3       11 UNK         0.0166 
     16 S16       -74.2749   27.4062  -71.5836 S.3       11 UNK        -0.2615 
     17 C17       -72.7664   28.0240  -70.7583 C.3       11 UNK        -0.0865 
     18 CA        -72.2405   29.3389  -71.3947 C.3       10 UNK         0.0862 
     19 C         -71.0619   29.9397  -70.5753 C.2       10 UNK         0.5551 
     20 N         -69.8991   30.1912  -71.1645 N.am      10 UNK        -0.7319 
     21 O         -71.2099   30.1924  -69.3822 O.2       10 UNK        -0.5018 
     22 N         -71.9508   29.1552  -72.8244 N.am      10 UNK        -0.4509 
     23 C         -72.0955   30.0815  -73.7794 C.2       10 UNK         0.4899 
     24 O         -72.4775   31.2316  -73.5634 O.2       10 UNK        -0.4839 
     25 CA        -71.7361   29.6637  -75.2205 C.3       9 UNK         0.0222 
     26 CB        -70.5288   30.4681  -75.7320 C.3       9 UNK        -0.1966 
     27 N         -71.4437   28.2300  -75.3513 N.am      9 UNK        -0.4218 
     28 C         -72.3751   27.2722  -75.4332 C.2       9 UNK         0.5020 
     29 O         -73.5891   27.4855  -75.4760 O.2       9 UNK        -0.5274 
     30 CA        -71.8684   25.8268  -75.4298 C.3       8 UNK         0.0270 
     31 CB        -71.6325   25.3268  -73.9918 C.3       8 UNK        -0.1976 
     32 N         -72.8880   25.0213  -76.0833 N.am      8 UNK        -0.4313 
     33 C         -72.7298   23.8205  -76.6465 C.2       8 UNK         0.5041 
     34 O         -71.6841   23.1706  -76.6078 O.2       8 UNK        -0.5577 
     35 CA        -73.9481   23.2611  -77.4024 C.3       7 UNK         0.0284 
     36 CB        -74.8046   22.3938  -76.4670 C.3       7 UNK        -0.1958 
     37 N         -74.7799   24.3200  -77.9865 N.am      7 UNK        -0.4454 
     38 C         -74.4027   25.0911  -79.0188 C.2       7 UNK         0.5089 
     39 O         -73.3427   24.9459  -79.6285 O.2       7 UNK        -0.5125 
     40 CA        -75.3467   26.2272  -79.4299 C.3       6 UNK         0.0408 
     41 CB        -76.4542   25.6943  -80.3530 C.3       6 UNK        -0.1791 
     42 N         -75.9595   26.8563  -78.2601 N.am      6 UNK        -0.4762 
     43 C         -75.8002   28.1339  -77.8806 C.2       6 UNK         0.5007 
     44 O         -75.0535   28.9202  -78.4665 O.2       6 UNK        -0.5032 
     45 CA        -76.6370   28.6169  -76.6628 C.3       5 UNK         0.0783 
     46 C46       -76.9545   30.1392  -76.6967 C.3       11 UNK        -0.0857 
     47 S47       -75.6549   31.1148  -75.8629 S.3       11 UNK        -0.2512 
     48 C48       -76.5242   31.7636  -74.3989 C.3       11 UNK         0.0225 
     49 N         -77.8277   27.7864  -76.4371 N.am      5 UNK        -0.4615 
     50 C         -78.8498   27.5978  -77.2847 C.2       4 UNK         0.5053 
     51 O         -79.0311   28.2840  -78.2911 O.2       4 UNK        -0.5105 
     52 CA        -79.8004   26.4135  -76.9957 C.3       4 UNK         0.0263 
     53 CB        -80.1468   25.6356  -78.2820 C.3       4 UNK        -0.1981 
     54 N         -79.3373   25.4791  -75.9561 N.am      4 UNK        -0.4224 
     55 C         -78.2061   24.7543  -75.9293 C.2       3 UNK         0.4895 
     56 O         -77.3405   24.7941  -76.8061 O.2       3 UNK        -0.5091 
     57 CA        -77.9638   23.8802  -74.6883 C.3       3 UNK         0.0250 
     58 CB        -77.0427   24.6175  -73.7012 C.3       3 UNK        -0.1996 
     59 N         -79.2039   23.4943  -74.0099 N.am      3 UNK        -0.4254 
     60 C         -80.0406   22.5463  -74.4623 C.2       2 UNK         0.5004 
     61 O         -79.8094   21.8523  -75.4531 O.2       2 UNK        -0.5226 
     62 CA        -81.3638   22.3321  -73.7006 C.3       2 UNK         0.0269 
     63 CB        -81.2379   21.1486  -72.7275 C.3       2 UNK        -0.1926 
     64 N         -81.8211   23.5123  -72.9623 N.am      2 UNK        -0.4687 
     65 C         -82.1706   24.6816  -73.5179 C.2       1 UNK         0.5165 
     66 O         -82.2381   24.8480  -74.7370 O.2       1 UNK        -0.5079 
     67 H67       -79.4092   26.3850  -69.3006 H         1 UNK         0.0900 
     68 H68       -81.0221   25.8600  -68.8144 H         1 UNK         0.0900 
     69 H69       -79.7616   24.6643  -69.1270 H         1 UNK         0.0900 
     70 H70       -82.4798   25.9599  -70.4588 H         1 UNK         0.2959 
     71 H71       -83.5459   25.7191  -72.3443 H         1 UNK         0.1079 
     72 H72       -83.0178   27.3122  -74.0939 H         1 UNK         0.0837 
     73 H73       -82.7617   28.0144  -72.5346 H         1 UNK         0.0837 
     74 H74       -80.8721   29.8454  -72.5833 H         1 UNK         0.0685 
     75 H75       -80.4999   28.5421  -71.4796 H         1 UNK         0.0685 
     76 H76       -79.0574   30.7959  -74.0581 H         1 UNK         0.1434 
     77 H77       -75.0442   30.3179  -72.6204 H         1 UNK         0.1329 
     78 H78       -78.2087   27.9072  -71.0118 H         1 UNK         0.1335 
     79 H79       -75.0785   29.1946  -70.1493 H         1 UNK         0.0680 
     80 H80       -76.0634   27.7615  -70.0218 H         1 UNK         0.0680 
     81 H81       -72.9769   28.1573  -69.6953 H         1 UNK         0.1032 
     82 H82       -72.0033   27.2455  -70.8132 H         1 UNK         0.1032 
     83 H83       -73.0405   30.0761  -71.3103 H         1 UNK         0.0461 
     84 H84       -69.1451   30.5851  -70.6238 H         1 UNK         0.3453 
     85 H85       -69.7726   29.9989  -72.1446 H         1 UNK         0.3453 
     86 H86       -71.6379   28.2366  -73.0950 H         1 UNK         0.2984 
     87 H87       -72.5954   29.9056  -75.8502 H         1 UNK         0.0554 
     88 H88       -70.7271   31.5400  -75.6894 H         1 UNK         0.0847 
     89 H89       -70.3019   30.2261  -76.7705 H         1 UNK         0.0847 
     90 H90       -69.6335   30.2794  -75.1384 H         1 UNK         0.0847 
     91 H91       -70.4690   27.9633  -75.3318 H         1 UNK         0.3141 
     92 H92       -70.9423   25.7691  -76.0057 H         1 UNK         0.0743 
     93 H93       -70.8672   25.9182  -73.4883 H         1 UNK         0.0784 
     94 H94       -72.5421   25.3869  -73.3921 H         1 UNK         0.0784 
     95 H95       -71.2952   24.2903  -73.9812 H         1 UNK         0.0784 
     96 H96       -73.7711   25.5074  -76.1881 H         1 UNK         0.3213 
     97 H97       -73.5789   22.6312  -78.2149 H         1 UNK         0.0855 
     98 H98       -75.1448   22.9581  -75.5988 H         1 UNK         0.0814 
     99 H99       -74.2325   21.5425  -76.0958 H         1 UNK         0.0814 
    100 H100      -75.6821   21.9980  -76.9789 H         1 UNK         0.0814 
    101 H101      -75.6906   24.4766  -77.5597 H         1 UNK         0.3105 
    102 H102      -74.7601   26.9565  -79.9921 H         1 UNK         0.0547 
    103 H103      -77.1223   26.4947  -80.6717 H         1 UNK         0.0837 
    104 H104      -76.0302   25.2469  -81.2529 H         1 UNK         0.0837 
    105 H105      -77.0584   24.9304  -79.8622 H         1 UNK         0.0837 
    106 H106      -76.5817   26.2677  -77.7124 H         1 UNK         0.3020 
    107 H107      -76.0101   28.4224  -75.7907 H         1 UNK         0.1245 
    108 H108      -77.9081   30.3410  -76.2091 H         1 UNK         0.0781 
    109 H109      -77.0800   30.5028  -77.7183 H         1 UNK         0.0781 
    110 H110      -77.3638   32.3801  -74.7241 H         1 UNK         0.0836 
    111 H111      -75.8494   32.4322  -73.8622 H         1 UNK         0.0836 
    112 H112      -77.7921   27.1948  -75.6200 H         1 UNK         0.3022 
    113 H113      -80.7247   26.8529  -76.6186 H         1 UNK         0.0747 
    114 H114      -80.6155   26.2846  -79.0226 H         1 UNK         0.0793 
    115 H115      -79.2595   25.2024  -78.7438 H         1 UNK         0.0793 
    116 H116      -80.8466   24.8255  -78.0759 H         1 UNK         0.0793 
    117 H117      -79.9713   25.3794  -75.1727 H         1 UNK         0.3047 
    118 H118      -77.4572   22.9718  -75.0190 H         1 UNK         0.0822 
    119 H119      -76.0938   24.8840  -74.1692 H         1 UNK         0.0807 
    120 H120      -76.8129   23.9976  -72.8346 H         1 UNK         0.0807 
    121 H121      -77.4948   25.5418  -73.3376 H         1 UNK         0.0807 
    122 H122      -79.4594   24.0339  -73.1843 H         1 UNK         0.2946 
    123 H123      -82.1256   22.0885  -74.4447 H         1 UNK         0.1144 
    124 H124      -82.1902   20.9272  -72.2453 H         1 UNK         0.0793 
    125 H125      -80.5018   21.3451  -71.9469 H         1 UNK         0.0793 
    126 H126      -80.9243   20.2443  -73.2512 H         1 UNK         0.0793 
    127 H127      -81.7740   23.4664  -71.9546 H         1 UNK         0.2896 
@<TRIPOS>BOND
     1    1    2 1    
     2    1   67 1    
     3    1   68 1    
     4    1   69 1    
     5    2    3 2    
     6    2    4 am   BACKBONE|DICT|INTERRES
     7    4    5 1    
     8    4   70 1    
     9    5    6 1    
    10    5   65 1    
    11    5   71 1    
    12    6    7 1    
    13    6   72 1    
    14    6   73 1    
    15    7    8 1    
    16    8    9 1    
    17    8   74 1    
    18    8   75 1    
    19    9   10 ar   
    20    9   14 ar   
    21   10   11 ar   
    22   10   76 1    
    23   11   12 ar   
    24   11   48 1    
    25   12   13 ar   
    26   12   77 1    
    27   13   14 ar   
    28   13   15 1    
    29   14   78 1    
    30   15   16 1    
    31   15   79 1    
    32   15   80 1    
    33   16   17 1    
    34   17   18 1    
    35   17   81 1    
    36   17   82 1    
    37   18   19 1    
    38   18   22 1    
    39   18   83 1    
    40   19   20 am   BACKBONE|DICT|INTERRES
    41   19   21 2    
    42   20   84 1    
    43   20   85 1    
    44   22   23 am   BACKBONE|DICT|INTERRES
    45   22   86 1    
    46   23   24 2    
    47   23   25 1    
    48   25   26 1    
    49   25   27 1    
    50   25   87 1    
    51   26   88 1    
    52   26   89 1    
    53   26   90 1    
    54   27   28 am   BACKBONE|DICT|INTERRES
    55   27   91 1    
    56   28   29 2    
    57   28   30 1    
    58   30   31 1    
    59   30   32 1    
    60   30   92 1    
    61   31   93 1    
    62   31   94 1    
    63   31   95 1    
    64   32   33 am   BACKBONE|DICT|INTERRES
    65   32   96 1    
    66   33   34 2    
    67   33   35 1    
    68   35   36 1    
    69   35   37 1    
    70   35   97 1    
    71   36   98 1    
    72   36   99 1    
    73   36  100 1    
    74   37   38 am   BACKBONE|DICT|INTERRES
    75   37  101 1    
    76   38   39 2    
    77   38   40 1    
    78   40   41 1    
    79   40   42 1    
    80   40  102 1    
    81   41  103 1    
    82   41  104 1    
    83   41  105 1    
    84   42   43 am   BACKBONE|DICT|INTERRES
    85   42  106 1    
    86   43   44 2    
    87   43   45 1    
    88   45   46 1    
    89   45   49 1    
    90   45  107 1    
    91   46   47 1    
    92   46  108 1    
    93   46  109 1    
    94   47   48 1    
    95   48  110 1    
    96   48  111 1    
    97   49   50 am   BACKBONE|DICT|INTERRES
    98   49  112 1    
    99   50   51 2    
   100   50   52 1    
   101   52   53 1    
   102   52   54 1    
   103   52  113 1    
   104   53  114 1    
   105   53  115 1    
   106   53  116 1    
   107   54   55 am   BACKBONE|DICT|INTERRES
   108   54  117 1    
   109   55   56 2    
   110   55   57 1    
   111   57   58 1    
   112   57   59 1    
   113   57  118 1    
   114   58  119 1    
   115   58  120 1    
   116   58  121 1    
   117   59   60 am   BACKBONE|DICT|INTERRES
   118   59  122 1    
   119   60   61 2    
   120   60   62 1    
   121   62   63 1    
   122   62   64 1    
   123   62  123 1    
   124   63  124 1    
   125   63  125 1    
   126   63  126 1    
   127   64   65 am   BACKBONE|DICT|INTERRES
   128   64  127 1    
   129   65   66 2    
@<TRIPOS>SUBSTRUCTURE
     1 UNK         1 GROUP             0       ****    0 ROOT    
