@<TRIPOS>MOLECULE
3R135
127   129    1
SMALL
USER_CHARGES


@<TRIPOS>ATOM
      1 CA        -76.1276   23.0353  -73.4476 C.3       0 UNK        -0.1998 
      2 C         -77.4330   23.7439  -73.1199 C.2       0 UNK         0.4909 
      3 O         -78.1334   24.1899  -74.0266 O.2       0 UNK        -0.5240 
      4 N         -77.7872   23.8298  -71.8291 N.am      1 UNK        -0.4739 
      5 CA        -78.9996   24.4932  -71.3111 C.3       1 UNK         0.0864 
      6 C6        -78.9855   26.0325  -71.5376 C.3       11 UNK        -0.0881 
      7 S7        -77.5790   26.8691  -70.7267 S.3       11 UNK        -0.2682 
      8 C8        -78.3318   28.4577  -70.2370 C.3       11 UNK         0.0289 
      9 C9        -78.3509   29.4664  -71.3802 C.ar      11 UNK        -0.0687 
     10 C10       -79.2316   29.3074  -72.4553 C.ar      11 UNK        -0.0823 
     11 C11       -79.2415   30.2227  -73.5118 C.ar      11 UNK        -0.0830 
     12 C12       -78.3845   31.3256  -73.4723 C.ar      11 UNK        -0.1021 
     13 C13       -77.5227   31.5161  -72.3888 C.ar      11 UNK        -0.0753 
     14 C14       -77.5030   30.5789  -71.3507 C.ar      11 UNK        -0.0933 
     15 C15       -76.6392   32.7534  -72.3328 C.3       11 UNK         0.0166 
     16 S16       -75.0579   32.4947  -73.1903 S.3       11 UNK        -0.2615 
     17 C17       -74.1370   31.5501  -71.9311 C.3       11 UNK        -0.0865 
     18 CA        -72.6613   31.3196  -72.3378 C.3       10 UNK         0.0862 
     19 C         -71.8695   30.6751  -71.1683 C.2       10 UNK         0.5551 
     20 N         -71.0110   31.4349  -70.5022 N.am      10 UNK        -0.7319 
     21 O         -72.0689   29.5105  -70.8304 O.2       10 UNK        -0.5018 
     22 N         -72.5767   30.5218  -73.5670 N.am      10 UNK        -0.4509 
     23 C         -71.4661   30.3112  -74.2823 C.2       10 UNK         0.4899 
     24 O         -70.3779   30.8336  -74.0339 O.2       10 UNK        -0.4839 
     25 CA        -71.6170   29.3598  -75.4853 C.3       9 UNK         0.0222 
     26 CB        -70.2656   28.9310  -76.0948 C.3       9 UNK        -0.1966 
     27 N         -72.4452   28.1864  -75.1823 N.am      9 UNK        -0.4218 
     28 C         -72.2200   27.2490  -74.2459 C.2       9 UNK         0.5020 
     29 O         -71.2636   27.2489  -73.4703 O.2       9 UNK        -0.5274 
     30 CA        -73.2284   26.0880  -74.1965 C.3       8 UNK         0.0270 
     31 CB        -74.5347   26.5375  -73.5166 C.3       8 UNK        -0.1976 
     32 N         -73.5032   25.5481  -75.5329 N.am      8 UNK        -0.4313 
     33 C         -72.5839   24.9694  -76.3238 C.2       8 UNK         0.5041 
     34 O         -71.4372   24.7002  -75.9637 O.2       8 UNK        -0.5577 
     35 CA        -72.9985   24.6630  -77.7710 C.3       7 UNK         0.0284 
     36 CB        -73.6369   23.2679  -77.8735 C.3       7 UNK        -0.1958 
     37 N         -73.9182   25.6803  -78.2863 N.am      7 UNK        -0.4454 
     38 C         -73.5299   26.8615  -78.7898 C.2       7 UNK         0.5089 
     39 O         -72.3523   27.1778  -78.9589 O.2       7 UNK        -0.5125 
     40 CA        -74.6324   27.8704  -79.1660 C.3       6 UNK         0.0408 
     41 CB        -74.9834   27.7470  -80.6570 C.3       6 UNK        -0.1791 
     42 N         -75.8541   27.7304  -78.3689 N.am      6 UNK        -0.4762 
     43 C         -75.9561   28.0304  -77.0654 C.2       6 UNK         0.5007 
     44 O         -75.0311   28.5005  -76.4022 O.2       6 UNK        -0.5032 
     45 CA        -77.2950   27.6866  -76.3767 C.3       5 UNK         0.0783 
     46 C46       -78.2705   28.8885  -76.4304 C.3       11 UNK        -0.0857 
     47 S47       -79.8682   28.5149  -75.6224 S.3       11 UNK        -0.2512 
     48 C48       -80.2009   30.0372  -74.6792 C.3       11 UNK         0.0225 
     49 N         -77.9174   26.4629  -76.9007 N.am      5 UNK        -0.4615 
     50 C         -77.3641   25.2445  -76.9292 C.2       4 UNK         0.5053 
     51 O         -76.1925   25.0253  -76.6186 O.2       4 UNK        -0.5105 
     52 CA        -78.2916   24.0969  -77.3547 C.3       4 UNK         0.0263 
     53 CB        -77.6329   22.7111  -77.2273 C.3       4 UNK        -0.1981 
     54 N         -79.4904   24.1410  -76.5178 N.am      4 UNK        -0.4224 
     55 C         -80.7473   24.2486  -76.9657 C.2       3 UNK         0.4895 
     56 O         -81.0386   24.2611  -78.1634 O.2       3 UNK        -0.5091 
     57 CA        -81.8636   24.4087  -75.9108 C.3       3 UNK         0.0250 
     58 CB        -83.2642   24.0774  -76.4702 C.3       3 UNK        -0.1996 
     59 N         -81.6323   23.6847  -74.6543 N.am      3 UNK        -0.4254 
     60 C         -81.4758   22.3648  -74.4740 C.2       2 UNK         0.5004 
     61 O         -81.4554   21.5447  -75.3936 O.2       2 UNK        -0.5226 
     62 CA        -81.3186   21.8880  -73.0107 C.3       2 UNK         0.0269 
     63 CB        -81.0561   20.3736  -72.9055 C.3       2 UNK        -0.1926 
     64 N         -80.2475   22.5990  -72.3052 N.am      2 UNK        -0.4687 
     65 C         -80.3121   23.8544  -71.8373 C.2       1 UNK         0.5165 
     66 O         -81.3547   24.5122  -71.8567 O.2       1 UNK        -0.5079 
     67 H67       -75.4291   23.0740  -72.6121 H         1 UNK         0.0900 
     68 H68       -75.6497   23.5005  -74.3096 H         1 UNK         0.0900 
     69 H69       -76.3192   21.9911  -73.6921 H         1 UNK         0.0900 
     70 H70       -77.1784   23.4374  -71.1240 H         1 UNK         0.2959 
     71 H71       -79.0093   24.3177  -70.2342 H         1 UNK         0.1079 
     72 H72       -79.9058   26.4733  -71.1515 H         1 UNK         0.0837 
     73 H73       -78.9606   26.2667  -72.6033 H         1 UNK         0.0837 
     74 H74       -79.3436   28.3011  -69.8608 H         1 UNK         0.0685 
     75 H75       -77.7616   28.8558  -69.3963 H         1 UNK         0.0685 
     76 H76       -79.9088   28.4664  -72.4811 H         1 UNK         0.1434 
     77 H77       -78.3954   32.0471  -74.2782 H         1 UNK         0.1329 
     78 H78       -76.8342   30.7229  -70.5134 H         1 UNK         0.1335 
     79 H79       -76.4591   33.0517  -71.2988 H         1 UNK         0.0680 
     80 H80       -77.1555   33.5927  -72.8015 H         1 UNK         0.0680 
     81 H81       -74.1887   32.0993  -70.9887 H         1 UNK         0.1032 
     82 H82       -74.6392   30.5958  -71.7610 H         1 UNK         0.1032 
     83 H83       -72.2175   32.2936  -72.5552 H         1 UNK         0.0461 
     84 H84       -70.8472   32.3931  -70.7698 H         1 UNK         0.3453 
     85 H85       -70.5020   31.0372  -69.7282 H         1 UNK         0.3453 
     86 H86       -73.4240   30.0512  -73.8469 H         1 UNK         0.2984 
     87 H87       -72.1580   29.9195  -76.2496 H         1 UNK         0.0554 
     88 H88       -70.4104   28.2778  -76.9557 H         1 UNK         0.0847 
     89 H89       -69.6454   28.4001  -75.3719 H         1 UNK         0.0847 
     90 H90       -69.6979   29.7969  -76.4373 H         1 UNK         0.0847 
     91 H91       -73.3075   28.1191  -75.7194 H         1 UNK         0.3141 
     92 H92       -72.7924   25.2837  -73.6003 H         1 UNK         0.0743 
     93 H93       -74.9824   27.3986  -74.0107 H         1 UNK         0.0784 
     94 H94       -75.2781   25.7438  -73.5017 H         1 UNK         0.0784 
     95 H95       -74.3506   26.8255  -72.4806 H         1 UNK         0.0784 
     96 H96       -74.4484   25.6413  -75.8921 H         1 UNK         0.3213 
     97 H97       -72.0954   24.6621  -78.3858 H         1 UNK         0.0855 
     98 H98       -72.9146   22.4950  -77.6079 H         1 UNK         0.0814 
     99 H99       -73.9785   23.0580  -78.8871 H         1 UNK         0.0814 
    100 H100      -74.4860   23.1555  -77.2000 H         1 UNK         0.0814 
    101 H101      -74.9034   25.5221  -78.1103 H         1 UNK         0.3105 
    102 H102      -74.2319   28.8719  -78.9939 H         1 UNK         0.0547 
    103 H103      -75.7018   28.5084  -80.9609 H         1 UNK         0.0837 
    104 H104      -74.0958   27.8766  -81.2781 H         1 UNK         0.0837 
    105 H105      -75.4062   26.7701  -80.8945 H         1 UNK         0.0837 
    106 H106      -76.6618   27.3390  -78.8323 H         1 UNK         0.3020 
    107 H107      -77.0652   27.4904  -75.3269 H         1 UNK         0.1245 
    108 H108      -78.4745   29.1764  -77.4635 H         1 UNK         0.0781 
    109 H109      -77.8173   29.7600  -75.9542 H         1 UNK         0.0781 
    110 H110      -81.2205   29.9944  -74.2937 H         1 UNK         0.0836 
    111 H111      -80.1675   30.8917  -75.3570 H         1 UNK         0.0836 
    112 H112      -78.8929   26.5478  -77.1470 H         1 UNK         0.3022 
    113 H113      -78.5403   24.2618  -78.4048 H         1 UNK         0.0747 
    114 H114      -78.3259   21.9182  -77.5084 H         1 UNK         0.0793 
    115 H115      -77.2987   22.5160  -76.2080 H         1 UNK         0.0793 
    116 H116      -76.7646   22.6301  -77.8815 H         1 UNK         0.0793 
    117 H117      -79.3019   24.1688  -75.5165 H         1 UNK         0.3047 
    118 H118      -81.8621   25.4673  -75.6460 H         1 UNK         0.0822 
    119 H119      -83.3284   23.0426  -76.8084 H         1 UNK         0.0807 
    120 H120      -83.5092   24.7139  -77.3215 H         1 UNK         0.0807 
    121 H121      -84.0390   24.2340  -75.7198 H         1 UNK         0.0807 
    122 H122      -81.6116   24.2565  -73.8152 H         1 UNK         0.2946 
    123 H123      -82.2663   22.0961  -72.5085 H         1 UNK         0.1144 
    124 H124      -81.8608   19.8032  -73.3717 H         1 UNK         0.0793 
    125 H125      -80.1259   20.0901  -73.3996 H         1 UNK         0.0793 
    126 H126      -80.9962   20.0520  -71.8656 H         1 UNK         0.0793 
    127 H127      -79.3450   22.1464  -72.2887 H         1 UNK         0.2896 
@<TRIPOS>BOND
     1    1    2 1    
     2    1   67 1    
     3    1   68 1    
     4    1   69 1    
     5    2    3 2    
     6    2    4 am   BACKBONE|DICT|INTERRES
     7    4    5 1    
     8    4   70 1    
     9    5    6 1    
    10    5   65 1    
    11    5   71 1    
    12    6    7 1    
    13    6   72 1    
    14    6   73 1    
    15    7    8 1    
    16    8    9 1    
    17    8   74 1    
    18    8   75 1    
    19    9   10 ar   
    20    9   14 ar   
    21   10   11 ar   
    22   10   76 1    
    23   11   12 ar   
    24   11   48 1    
    25   12   13 ar   
    26   12   77 1    
    27   13   14 ar   
    28   13   15 1    
    29   14   78 1    
    30   15   16 1    
    31   15   79 1    
    32   15   80 1    
    33   16   17 1    
    34   17   18 1    
    35   17   81 1    
    36   17   82 1    
    37   18   19 1    
    38   18   22 1    
    39   18   83 1    
    40   19   20 am   BACKBONE|DICT|INTERRES
    41   19   21 2    
    42   20   84 1    
    43   20   85 1    
    44   22   23 am   BACKBONE|DICT|INTERRES
    45   22   86 1    
    46   23   24 2    
    47   23   25 1    
    48   25   26 1    
    49   25   27 1    
    50   25   87 1    
    51   26   88 1    
    52   26   89 1    
    53   26   90 1    
    54   27   28 am   BACKBONE|DICT|INTERRES
    55   27   91 1    
    56   28   29 2    
    57   28   30 1    
    58   30   31 1    
    59   30   32 1    
    60   30   92 1    
    61   31   93 1    
    62   31   94 1    
    63   31   95 1    
    64   32   33 am   BACKBONE|DICT|INTERRES
    65   32   96 1    
    66   33   34 2    
    67   33   35 1    
    68   35   36 1    
    69   35   37 1    
    70   35   97 1    
    71   36   98 1    
    72   36   99 1    
    73   36  100 1    
    74   37   38 am   BACKBONE|DICT|INTERRES
    75   37  101 1    
    76   38   39 2    
    77   38   40 1    
    78   40   41 1    
    79   40   42 1    
    80   40  102 1    
    81   41  103 1    
    82   41  104 1    
    83   41  105 1    
    84   42   43 am   BACKBONE|DICT|INTERRES
    85   42  106 1    
    86   43   44 2    
    87   43   45 1    
    88   45   46 1    
    89   45   49 1    
    90   45  107 1    
    91   46   47 1    
    92   46  108 1    
    93   46  109 1    
    94   47   48 1    
    95   48  110 1    
    96   48  111 1    
    97   49   50 am   BACKBONE|DICT|INTERRES
    98   49  112 1    
    99   50   51 2    
   100   50   52 1    
   101   52   53 1    
   102   52   54 1    
   103   52  113 1    
   104   53  114 1    
   105   53  115 1    
   106   53  116 1    
   107   54   55 am   BACKBONE|DICT|INTERRES
   108   54  117 1    
   109   55   56 2    
   110   55   57 1    
   111   57   58 1    
   112   57   59 1    
   113   57  118 1    
   114   58  119 1    
   115   58  120 1    
   116   58  121 1    
   117   59   60 am   BACKBONE|DICT|INTERRES
   118   59  122 1    
   119   60   61 2    
   120   60   62 1    
   121   62   63 1    
   122   62   64 1    
   123   62  123 1    
   124   63  124 1    
   125   63  125 1    
   126   63  126 1    
   127   64   65 am   BACKBONE|DICT|INTERRES
   128   64  127 1    
   129   65   66 2    
@<TRIPOS>SUBSTRUCTURE
     1 UNK         1 GROUP             0       ****    0 ROOT    
