@<TRIPOS>MOLECULE
3R135
127   129    1
SMALL
USER_CHARGES


@<TRIPOS>ATOM
      1 CA        -82.3268   27.5979  -71.2351 C.3       0 UNK        -0.1998 
      2 C         -81.6520   27.4718  -72.5921 C.2       0 UNK         0.4909 
      3 O         -80.6495   26.7713  -72.7067 O.2       0 UNK        -0.5240 
      4 N         -82.1994   28.1406  -73.6146 N.am      1 UNK        -0.4739 
      5 CA        -81.7325   28.2200  -75.0089 C.3       1 UNK         0.0864 
      6 C6        -80.3163   28.8315  -75.1906 C.3       11 UNK        -0.0881 
      7 S7        -80.1822   30.5051  -74.4630 S.3       11 UNK        -0.2682 
      8 C8        -78.3751   30.7592  -74.4065 C.3       11 UNK         0.0289 
      9 C9        -77.7601   30.4625  -73.0400 C.ar      11 UNK        -0.0687 
     10 C10       -77.9897   29.2403  -72.4031 C.ar      11 UNK        -0.0823 
     11 C11       -77.3907   28.9406  -71.1791 C.ar      11 UNK        -0.0830 
     12 C12       -76.5680   29.8921  -70.5693 C.ar      11 UNK        -0.1021 
     13 C13       -76.3380   31.1286  -71.1822 C.ar      11 UNK        -0.0753 
     14 C14       -76.9298   31.4033  -72.4204 C.ar      11 UNK        -0.0933 
     15 C15       -75.4899   32.1884  -70.4908 C.3       11 UNK         0.0166 
     16 S16       -73.7708   32.2161  -71.0916 S.3       11 UNK        -0.2615 
     17 C17       -73.0412   30.7837  -70.2221 C.3       11 UNK        -0.0865 
     18 CA        -72.1724   29.8906  -71.1445 C.3       10 UNK         0.0862 
     19 C         -71.5640   28.7133  -70.3328 C.2       10 UNK         0.5551 
     20 N         -70.3638   28.8856  -69.7961 N.am      10 UNK        -0.7319 
     21 O         -72.1899   27.6719  -70.1455 O.2       10 UNK        -0.5018 
     22 N         -72.9237   29.4537  -72.3295 N.am      10 UNK        -0.4509 
     23 C         -72.4252   28.7643  -73.3621 C.2       10 UNK         0.4899 
     24 O         -71.2500   28.4011  -73.4450 O.2       10 UNK        -0.4839 
     25 CA        -73.4404   28.4384  -74.4715 C.3       9 UNK         0.0222 
     26 CB        -73.9568   29.7157  -75.1698 C.3       9 UNK        -0.1966 
     27 N         -72.9723   27.4454  -75.4496 N.am      9 UNK        -0.4218 
     28 C         -72.0013   27.5824  -76.3669 C.2       9 UNK         0.5020 
     29 O         -71.3592   28.6155  -76.5632 O.2       9 UNK        -0.5274 
     30 CA        -71.7146   26.3552  -77.2419 C.3       8 UNK         0.0270 
     31 CB        -70.9514   25.2788  -76.4499 C.3       8 UNK        -0.1976 
     32 N         -72.9604   25.7931  -77.7685 N.am      8 UNK        -0.4313 
     33 C         -73.3556   25.8834  -79.0442 C.2       8 UNK         0.5041 
     34 O         -72.6959   26.4244  -79.9333 O.2       8 UNK        -0.5577 
     35 CA        -74.7115   25.2539  -79.4039 C.3       7 UNK         0.0284 
     36 CB        -74.5757   23.7338  -79.5856 C.3       7 UNK        -0.1958 
     37 N         -75.7815   25.5438  -78.4457 N.am      7 UNK        -0.4454 
     38 C         -76.3298   26.7551  -78.2668 C.2       7 UNK         0.5089 
     39 O         -75.9243   27.7829  -78.8094 O.2       7 UNK        -0.5125 
     40 CA        -77.5659   26.8231  -77.3584 C.3       6 UNK         0.0408 
     41 CB        -78.7958   26.2700  -78.0953 C.3       6 UNK        -0.1791 
     42 N         -77.3441   26.0875  -76.1120 N.am      6 UNK        -0.4762 
     43 C         -76.8230   26.6422  -75.0075 C.2       6 UNK         0.5007 
     44 O         -76.6457   27.8507  -74.8941 O.2       6 UNK        -0.5032 
     45 CA        -76.3768   25.7148  -73.8515 C.3       5 UNK         0.0783 
     46 C46       -77.3494   25.7391  -72.6416 C.3       11 UNK        -0.0857 
     47 S47       -76.5333   26.2956  -71.1047 S.3       11 UNK        -0.2512 
     48 C48       -77.6572   27.6008  -70.5075 C.3       11 UNK         0.0225 
     49 N         -76.1184   24.3495  -74.3047 N.am      5 UNK        -0.4615 
     50 C         -75.0860   23.9865  -75.0743 C.2       4 UNK         0.5053 
     51 O         -74.2072   24.7649  -75.4471 O.2       4 UNK        -0.5105 
     52 CA        -75.0615   22.5245  -75.5532 C.3       4 UNK         0.0263 
     53 CB        -74.2103   21.6668  -74.6049 C.3       4 UNK        -0.1981 
     54 N         -76.3988   21.9323  -75.6853 N.am      4 UNK        -0.4224 
     55 C         -77.3636   22.3868  -76.4991 C.2       3 UNK         0.4895 
     56 O         -77.1993   23.3308  -77.2749 O.2       3 UNK        -0.5091 
     57 CA        -78.7433   21.7012  -76.4259 C.3       3 UNK         0.0250 
     58 CB        -78.9144   20.7575  -75.2126 C.3       3 UNK        -0.1996 
     59 N         -79.8554   22.6616  -76.4777 N.am      3 UNK        -0.4254 
     60 C         -80.0899   23.6846  -75.6404 C.2       2 UNK         0.5004 
     61 O         -79.3565   23.9948  -74.6986 O.2       2 UNK        -0.5226 
     62 CA        -81.3916   24.4606  -75.8873 C.3       2 UNK         0.0269 
     63 CB        -82.5979   23.6967  -75.3122 C.3       2 UNK        -0.1926 
     64 N         -81.3341   25.7899  -75.2773 N.am      2 UNK        -0.4687 
     65 C         -81.8879   26.8960  -75.7891 C.2       1 UNK         0.5165 
     66 O         -82.5190   26.9031  -76.8473 O.2       1 UNK        -0.5079 
     67 H67       -81.6294   28.0167  -70.5101 H         1 UNK         0.0900 
     68 H68       -83.2049   28.2421  -71.2730 H         1 UNK         0.0900 
     69 H69       -82.6396   26.6164  -70.8800 H         1 UNK         0.0900 
     70 H70       -83.0380   28.6748  -73.4341 H         1 UNK         0.2959 
     71 H71       -82.4276   28.9136  -75.4859 H         1 UNK         0.1079 
     72 H72       -79.5550   28.1722  -74.7755 H         1 UNK         0.0837 
     73 H73       -80.0792   28.9196  -76.2526 H         1 UNK         0.0837 
     74 H74       -78.1786   31.7951  -74.6863 H         1 UNK         0.0685 
     75 H75       -77.8888   30.1468  -75.1662 H         1 UNK         0.0685 
     76 H76       -78.6346   28.5131  -72.8658 H         1 UNK         0.1434 
     77 H77       -76.1207   29.6736  -69.6095 H         1 UNK         0.1329 
     78 H78       -76.7451   32.3560  -72.8978 H         1 UNK         0.1335 
     79 H79       -75.9319   33.1708  -70.6641 H         1 UNK         0.0680 
     80 H80       -75.4981   32.0445  -69.4091 H         1 UNK         0.0680 
     81 H81       -73.8300   30.1891  -69.7601 H         1 UNK         0.1032 
     82 H82       -72.4398   31.1703  -69.3969 H         1 UNK         0.1032 
     83 H83       -71.3464   30.5009  -71.5157 H         1 UNK         0.0461 
     84 H84       -69.8474   29.7403  -69.9357 H         1 UNK         0.3453 
     85 H85       -69.9593   28.1402  -69.2511 H         1 UNK         0.3453 
     86 H86       -73.9017   29.7051  -72.3368 H         1 UNK         0.2984 
     87 H87       -74.2827   27.9769  -73.9634 H         1 UNK         0.0554 
     88 H88       -74.4971   30.3559  -74.4714 H         1 UNK         0.0847 
     89 H89       -74.6492   29.4721  -75.9760 H         1 UNK         0.0847 
     90 H90       -73.1448   30.3086  -75.5913 H         1 UNK         0.0847 
     91 H91       -73.3984   26.5270  -75.3672 H         1 UNK         0.3141 
     92 H92       -71.0680   26.6794  -78.0602 H         1 UNK         0.0743 
     93 H93       -70.0163   25.6782  -76.0549 H         1 UNK         0.0784 
     94 H94       -71.5271   24.9035  -75.6034 H         1 UNK         0.0784 
     95 H95       -70.6988   24.4287  -77.0838 H         1 UNK         0.0784 
     96 H96       -73.5740   25.3473  -77.0907 H         1 UNK         0.3213 
     97 H97       -75.0178   25.6739  -80.3647 H         1 UNK         0.0855 
     98 H98       -74.2456   23.2438  -78.6709 H         1 UNK         0.0814 
     99 H99       -73.8439   23.4996  -80.3600 H         1 UNK         0.0814 
    100 H100      -75.5214   23.2820  -79.8861 H         1 UNK         0.0814 
    101 H101      -76.2179   24.7460  -77.9886 H         1 UNK         0.3105 
    102 H102      -77.7641   27.8747  -77.1397 H         1 UNK         0.0547 
    103 H103      -78.6998   25.2094  -78.3266 H         1 UNK         0.0837 
    104 H104      -78.9518   26.7945  -79.0389 H         1 UNK         0.0837 
    105 H105      -79.6983   26.4034  -77.5062 H         1 UNK         0.0837 
    106 H106      -77.4609   25.0812  -76.1465 H         1 UNK         0.3020 
    107 H107      -75.4140   26.1082  -73.5239 H         1 UNK         0.1245 
    108 H108      -77.7719   24.7514  -72.4501 H         1 UNK         0.0781 
    109 H109      -78.2138   26.3658  -72.8403 H         1 UNK         0.0781 
    110 H110      -77.5310   27.6984  -69.4282 H         1 UNK         0.0836 
    111 H111      -78.6946   27.2976  -70.6599 H         1 UNK         0.0836 
    112 H112      -76.8283   23.6655  -74.0839 H         1 UNK         0.3022 
    113 H113      -74.5921   22.5088  -76.5370 H         1 UNK         0.0747 
    114 H114      -74.1097   20.6461  -74.9745 H         1 UNK         0.0793 
    115 H115      -73.2029   22.0749  -74.5093 H         1 UNK         0.0793 
    116 H116      -74.6400   21.6218  -73.6032 H         1 UNK         0.0793 
    117 H117      -76.6113   21.1515  -75.0812 H         1 UNK         0.3047 
    118 H118      -78.8209   21.0955  -77.3299 H         1 UNK         0.0822 
    119 H119      -79.9074   20.3075  -75.2069 H         1 UNK         0.0807 
    120 H120      -78.7894   21.2823  -74.2644 H         1 UNK         0.0807 
    121 H121      -78.1999   19.9339  -75.2396 H         1 UNK         0.0807 
    122 H122      -80.5081   22.5123  -77.2346 H         1 UNK         0.2946 
    123 H123      -81.5135   24.5616  -76.9684 H         1 UNK         0.1144 
    124 H124      -83.5329   24.2159  -75.5235 H         1 UNK         0.0793 
    125 H125      -82.5176   23.5796  -74.2307 H         1 UNK         0.0793 
    126 H126      -82.6789   22.6986  -75.7445 H         1 UNK         0.0793 
    127 H127      -80.8171   25.8610  -74.4025 H         1 UNK         0.2896 
@<TRIPOS>BOND
     1    1    2 1    
     2    1   67 1    
     3    1   68 1    
     4    1   69 1    
     5    2    3 2    
     6    2    4 am   BACKBONE|DICT|INTERRES
     7    4    5 1    
     8    4   70 1    
     9    5    6 1    
    10    5   65 1    
    11    5   71 1    
    12    6    7 1    
    13    6   72 1    
    14    6   73 1    
    15    7    8 1    
    16    8    9 1    
    17    8   74 1    
    18    8   75 1    
    19    9   10 ar   
    20    9   14 ar   
    21   10   11 ar   
    22   10   76 1    
    23   11   12 ar   
    24   11   48 1    
    25   12   13 ar   
    26   12   77 1    
    27   13   14 ar   
    28   13   15 1    
    29   14   78 1    
    30   15   16 1    
    31   15   79 1    
    32   15   80 1    
    33   16   17 1    
    34   17   18 1    
    35   17   81 1    
    36   17   82 1    
    37   18   19 1    
    38   18   22 1    
    39   18   83 1    
    40   19   20 am   BACKBONE|DICT|INTERRES
    41   19   21 2    
    42   20   84 1    
    43   20   85 1    
    44   22   23 am   BACKBONE|DICT|INTERRES
    45   22   86 1    
    46   23   24 2    
    47   23   25 1    
    48   25   26 1    
    49   25   27 1    
    50   25   87 1    
    51   26   88 1    
    52   26   89 1    
    53   26   90 1    
    54   27   28 am   BACKBONE|DICT|INTERRES
    55   27   91 1    
    56   28   29 2    
    57   28   30 1    
    58   30   31 1    
    59   30   32 1    
    60   30   92 1    
    61   31   93 1    
    62   31   94 1    
    63   31   95 1    
    64   32   33 am   BACKBONE|DICT|INTERRES
    65   32   96 1    
    66   33   34 2    
    67   33   35 1    
    68   35   36 1    
    69   35   37 1    
    70   35   97 1    
    71   36   98 1    
    72   36   99 1    
    73   36  100 1    
    74   37   38 am   BACKBONE|DICT|INTERRES
    75   37  101 1    
    76   38   39 2    
    77   38   40 1    
    78   40   41 1    
    79   40   42 1    
    80   40  102 1    
    81   41  103 1    
    82   41  104 1    
    83   41  105 1    
    84   42   43 am   BACKBONE|DICT|INTERRES
    85   42  106 1    
    86   43   44 2    
    87   43   45 1    
    88   45   46 1    
    89   45   49 1    
    90   45  107 1    
    91   46   47 1    
    92   46  108 1    
    93   46  109 1    
    94   47   48 1    
    95   48  110 1    
    96   48  111 1    
    97   49   50 am   BACKBONE|DICT|INTERRES
    98   49  112 1    
    99   50   51 2    
   100   50   52 1    
   101   52   53 1    
   102   52   54 1    
   103   52  113 1    
   104   53  114 1    
   105   53  115 1    
   106   53  116 1    
   107   54   55 am   BACKBONE|DICT|INTERRES
   108   54  117 1    
   109   55   56 2    
   110   55   57 1    
   111   57   58 1    
   112   57   59 1    
   113   57  118 1    
   114   58  119 1    
   115   58  120 1    
   116   58  121 1    
   117   59   60 am   BACKBONE|DICT|INTERRES
   118   59  122 1    
   119   60   61 2    
   120   60   62 1    
   121   62   63 1    
   122   62   64 1    
   123   62  123 1    
   124   63  124 1    
   125   63  125 1    
   126   63  126 1    
   127   64   65 am   BACKBONE|DICT|INTERRES
   128   64  127 1    
   129   65   66 2    
@<TRIPOS>SUBSTRUCTURE
     1 UNK         1 GROUP             0       ****    0 ROOT    
