@<TRIPOS>MOLECULE
3R135
127   129    1
SMALL
USER_CHARGES


@<TRIPOS>ATOM
      1 CA        -81.9990   28.1150  -76.2671 C.3       0 UNK        -0.1998 
      2 C         -81.2266   27.3289  -75.2205 C.2       0 UNK         0.4909 
      3 O         -80.1704   26.7762  -75.5288 O.2       0 UNK        -0.5240 
      4 N         -81.7392   27.2716  -73.9837 N.am      1 UNK        -0.4739 
      5 CA        -81.1144   26.5727  -72.8524 C.3       1 UNK         0.0864 
      6 C6        -81.8090   26.9308  -71.5166 C.3       11 UNK        -0.0881 
      7 S7        -80.7457   26.6258  -70.0659 S.3       11 UNK        -0.2682 
      8 C8        -80.1191   28.2948  -69.6985 C.3       11 UNK         0.0289 
      9 C9        -79.0508   28.7449  -70.6864 C.ar      11 UNK        -0.0687 
     10 C10       -79.3538   29.6708  -71.6908 C.ar      11 UNK        -0.0823 
     11 C11       -78.3580   30.1411  -72.5552 C.ar      11 UNK        -0.0830 
     12 C12       -77.0483   29.6716  -72.4004 C.ar      11 UNK        -0.1021 
     13 C13       -76.7378   28.7281  -71.4178 C.ar      11 UNK        -0.0753 
     14 C14       -77.7427   28.2678  -70.5634 C.ar      11 UNK        -0.0933 
     15 C15       -75.3091   28.2332  -71.2674 C.3       11 UNK         0.0166 
     16 S16       -74.3115   29.4486  -70.3528 S.3       11 UNK        -0.2615 
     17 C17       -72.6394   28.7267  -70.4605 C.3       11 UNK        -0.0865 
     18 CA        -71.7874   29.3869  -71.5779 C.3       10 UNK         0.0862 
     19 C         -70.2784   29.0247  -71.4338 C.2       10 UNK         0.5551 
     20 N         -69.6213   28.4405  -72.4293 N.am      10 UNK        -0.7319 
     21 O         -69.6852   29.2902  -70.3911 O.2       10 UNK        -0.5018 
     22 N         -72.3521   29.1051  -72.9052 N.am      10 UNK        -0.4509 
     23 C         -72.1873   29.8551  -74.0009 C.2       10 UNK         0.4899 
     24 O         -71.6114   30.9440  -74.0087 O.2       10 UNK        -0.4839 
     25 CA        -72.7588   29.2658  -75.3082 C.3       9 UNK         0.0222 
     26 CB        -72.1176   29.8742  -76.5725 C.3       9 UNK        -0.1966 
     27 N         -72.7018   27.7963  -75.3537 N.am      9 UNK        -0.4218 
     28 C         -71.6059   27.0274  -75.2457 C.2       9 UNK         0.5020 
     29 O         -70.4654   27.4698  -75.1048 O.2       9 UNK        -0.5274 
     30 CA        -71.8170   25.5094  -75.2516 C.3       8 UNK         0.0270 
     31 CB        -72.2125   25.0187  -73.8473 C.3       8 UNK        -0.1976 
     32 N         -72.8418   25.1109  -76.2196 N.am      8 UNK        -0.4313 
     33 C         -72.5854   24.4726  -77.3683 C.2       8 UNK         0.5041 
     34 O         -71.4546   24.1619  -77.7467 O.2       8 UNK        -0.5577 
     35 CA        -73.7901   24.0884  -78.2402 C.3       7 UNK         0.0284 
     36 CB        -74.4556   22.8087  -77.7073 C.3       7 UNK        -0.1958 
     37 N         -74.7948   25.1453  -78.3655 N.am      7 UNK        -0.4454 
     38 C         -74.6379   26.2604  -79.0935 C.2       7 UNK         0.5089 
     39 O         -73.5872   26.5739  -79.6532 O.2       7 UNK        -0.5125 
     40 CA        -75.8707   27.1644  -79.2485 C.3       6 UNK         0.0408 
     41 CB        -76.8827   26.5395  -80.2235 C.3       6 UNK        -0.1791 
     42 N         -76.5188   27.3987  -77.9600 N.am      6 UNK        -0.4762 
     43 C         -76.2795   28.4549  -77.1693 C.2       6 UNK         0.5007 
     44 O         -75.5467   29.3912  -77.4870 O.2       6 UNK        -0.5032 
     45 CA        -76.9478   28.4572  -75.7763 C.3       5 UNK         0.0783 
     46 C46       -78.1902   29.3842  -75.7288 C.3       11 UNK        -0.0857 
     47 S47       -77.7735   31.0695  -75.1750 S.3       11 UNK        -0.2512 
     48 C48       -78.7154   31.1901  -73.6106 C.3       11 UNK         0.0225 
     49 N         -77.2578   27.1060  -75.2978 N.am      5 UNK        -0.4615 
     50 C         -76.3268   26.2029  -74.9616 C.2       4 UNK         0.5053 
     51 O         -75.1171   26.4258  -75.0126 O.2       4 UNK        -0.5105 
     52 CA        -76.8032   24.8027  -74.5487 C.3       4 UNK         0.0263 
     53 CB        -76.9235   24.7293  -73.0199 C.3       4 UNK        -0.1981 
     54 N         -78.0589   24.3911  -75.1916 N.am      4 UNK        -0.4224 
     55 C         -78.2072   24.2416  -76.5191 C.2       3 UNK         0.4895 
     56 O         -77.2939   24.4547  -77.3179 O.2       3 UNK        -0.5091 
     57 CA        -79.5855   23.8604  -77.0891 C.3       3 UNK         0.0250 
     58 CB        -79.5079   22.6201  -78.0033 C.3       3 UNK        -0.1996 
     59 N         -80.6593   23.7576  -76.0949 N.am      3 UNK        -0.4254 
     60 C         -80.9092   22.7838  -75.2072 C.2       2 UNK         0.5004 
     61 O         -80.2627   21.7397  -75.1158 O.2       2 UNK        -0.5226 
     62 CA        -82.0698   23.0756  -74.2302 C.3       2 UNK         0.0269 
     63 CB        -82.1418   22.0744  -73.0567 C.3       2 UNK        -0.1926 
     64 N         -82.0393   24.4641  -73.7390 N.am      2 UNK        -0.4687 
     65 C         -81.0259   25.0467  -73.0752 C.2       1 UNK         0.5165 
     66 O         -80.0185   24.4418  -72.7140 O.2       1 UNK        -0.5079 
     67 H67       -82.9270   28.5240  -75.8682 H         1 UNK         0.0900 
     68 H68       -82.2453   27.4725  -77.1118 H         1 UNK         0.0900 
     69 H69       -81.3927   28.9426  -76.6341 H         1 UNK         0.0900 
     70 H70       -82.6118   27.7417  -73.7875 H         1 UNK         0.2959 
     71 H71       -80.0847   26.9364  -72.8046 H         1 UNK         0.1079 
     72 H72       -82.0967   27.9832  -71.5123 H         1 UNK         0.0837 
     73 H73       -82.7401   26.3736  -71.3961 H         1 UNK         0.0837 
     74 H74       -79.6947   28.2909  -68.6934 H         1 UNK         0.0685 
     75 H75       -80.9483   29.0035  -69.6692 H         1 UNK         0.0685 
     76 H76       -80.3646   30.0439  -71.7840 H         1 UNK         0.1434 
     77 H77       -76.2585   30.0494  -73.0339 H         1 UNK         0.1329 
     78 H78       -77.5045   27.5529  -69.7875 H         1 UNK         0.1335 
     79 H79       -74.8804   28.0609  -72.2553 H         1 UNK         0.0680 
     80 H80       -75.2860   27.2750  -70.7460 H         1 UNK         0.0680 
     81 H81       -72.1718   28.8736  -69.4849 H         1 UNK         0.1032 
     82 H82       -72.7012   27.6460  -70.6009 H         1 UNK         0.1032 
     83 H83       -71.8344   30.4671  -71.4251 H         1 UNK         0.0461 
     84 H84       -68.6451   28.2240  -72.3063 H         1 UNK         0.3453 
     85 H85       -70.0710   28.2276  -73.3131 H         1 UNK         0.3453 
     86 H86       -72.8193   28.2181  -73.0064 H         1 UNK         0.2984 
     87 H87       -73.8162   29.5305  -75.3157 H         1 UNK         0.0554 
     88 H88       -72.2715   30.9532  -76.6094 H         1 UNK         0.0847 
     89 H89       -72.5586   29.4559  -77.4776 H         1 UNK         0.0847 
     90 H90       -71.0424   29.6962  -76.6079 H         1 UNK         0.0847 
     91 H91       -73.6045   27.3248  -75.3780 H         1 UNK         0.3141 
     92 H92       -70.8578   25.0507  -75.5010 H         1 UNK         0.0743 
     93 H93       -71.4558   25.2942  -73.1112 H         1 UNK         0.0784 
     94 H94       -73.1604   25.4411  -73.5132 H         1 UNK         0.0784 
     95 H95       -72.3059   23.9330  -73.8227 H         1 UNK         0.0784 
     96 H96       -73.7988   25.3642  -75.9960 H         1 UNK         0.3213 
     97 H97       -73.4112   23.8723  -79.2418 H         1 UNK         0.0855 
     98 H98       -74.8779   22.9545  -76.7128 H         1 UNK         0.0814 
     99 H99       -73.7351   21.9924  -77.6397 H         1 UNK         0.0814 
    100 H100      -75.2600   22.4773  -78.3644 H         1 UNK         0.0814 
    101 H101      -75.7112   24.9459  -77.9655 H         1 UNK         0.3105 
    102 H102      -75.5409   28.1128  -79.6781 H         1 UNK         0.0547 
    103 H103      -77.2688   25.5865  -79.8596 H         1 UNK         0.0837 
    104 H104      -77.7323   27.2020  -80.3884 H         1 UNK         0.0837 
    105 H105      -76.4234   26.3548  -81.1955 H         1 UNK         0.0837 
    106 H106      -77.0997   26.6507  -77.6024 H         1 UNK         0.3020 
    107 H107      -76.1969   28.8492  -75.0882 H         1 UNK         0.1245 
    108 H108      -78.9224   28.9922  -75.0252 H         1 UNK         0.0781 
    109 H109      -78.7077   29.4313  -76.6890 H         1 UNK         0.0781 
    110 H110      -78.5494   32.1793  -73.1824 H         1 UNK         0.0836 
    111 H111      -79.7785   31.1345  -73.8508 H         1 UNK         0.0836 
    112 H112      -78.2414   26.8480  -75.2715 H         1 UNK         0.3022 
    113 H113      -76.0347   24.0921  -74.8579 H         1 UNK         0.0747 
    114 H114      -75.9574   24.9082  -72.5459 H         1 UNK         0.0793 
    115 H115      -77.2693   23.7489  -72.6917 H         1 UNK         0.0793 
    116 H116      -77.6140   25.4796  -72.6321 H         1 UNK         0.0793 
    117 H117      -78.8534   24.2342  -74.5831 H         1 UNK         0.3047 
    118 H118      -79.8709   24.7031  -77.7209 H         1 UNK         0.0822 
    119 H119      -78.8297   22.7960  -78.8394 H         1 UNK         0.0807 
    120 H120      -80.4824   22.3736  -78.4245 H         1 UNK         0.0807 
    121 H121      -79.1372   21.7434  -77.4719 H         1 UNK         0.0807 
    122 H122      -81.2241   24.5924  -76.0184 H         1 UNK         0.2946 
    123 H123      -82.9875   22.9660  -74.8107 H         1 UNK         0.1144 
    124 H124      -82.2861   21.0567  -73.4216 H         1 UNK         0.0793 
    125 H125      -82.9760   22.3009  -72.3929 H         1 UNK         0.0793 
    126 H126      -81.2287   22.0771  -72.4609 H         1 UNK         0.0793 
    127 H127      -82.8214   25.0468  -74.0053 H         1 UNK         0.2896 
@<TRIPOS>BOND
     1    1    2 1    
     2    1   67 1    
     3    1   68 1    
     4    1   69 1    
     5    2    3 2    
     6    2    4 am   BACKBONE|DICT|INTERRES
     7    4    5 1    
     8    4   70 1    
     9    5    6 1    
    10    5   65 1    
    11    5   71 1    
    12    6    7 1    
    13    6   72 1    
    14    6   73 1    
    15    7    8 1    
    16    8    9 1    
    17    8   74 1    
    18    8   75 1    
    19    9   10 ar   
    20    9   14 ar   
    21   10   11 ar   
    22   10   76 1    
    23   11   12 ar   
    24   11   48 1    
    25   12   13 ar   
    26   12   77 1    
    27   13   14 ar   
    28   13   15 1    
    29   14   78 1    
    30   15   16 1    
    31   15   79 1    
    32   15   80 1    
    33   16   17 1    
    34   17   18 1    
    35   17   81 1    
    36   17   82 1    
    37   18   19 1    
    38   18   22 1    
    39   18   83 1    
    40   19   20 am   BACKBONE|DICT|INTERRES
    41   19   21 2    
    42   20   84 1    
    43   20   85 1    
    44   22   23 am   BACKBONE|DICT|INTERRES
    45   22   86 1    
    46   23   24 2    
    47   23   25 1    
    48   25   26 1    
    49   25   27 1    
    50   25   87 1    
    51   26   88 1    
    52   26   89 1    
    53   26   90 1    
    54   27   28 am   BACKBONE|DICT|INTERRES
    55   27   91 1    
    56   28   29 2    
    57   28   30 1    
    58   30   31 1    
    59   30   32 1    
    60   30   92 1    
    61   31   93 1    
    62   31   94 1    
    63   31   95 1    
    64   32   33 am   BACKBONE|DICT|INTERRES
    65   32   96 1    
    66   33   34 2    
    67   33   35 1    
    68   35   36 1    
    69   35   37 1    
    70   35   97 1    
    71   36   98 1    
    72   36   99 1    
    73   36  100 1    
    74   37   38 am   BACKBONE|DICT|INTERRES
    75   37  101 1    
    76   38   39 2    
    77   38   40 1    
    78   40   41 1    
    79   40   42 1    
    80   40  102 1    
    81   41  103 1    
    82   41  104 1    
    83   41  105 1    
    84   42   43 am   BACKBONE|DICT|INTERRES
    85   42  106 1    
    86   43   44 2    
    87   43   45 1    
    88   45   46 1    
    89   45   49 1    
    90   45  107 1    
    91   46   47 1    
    92   46  108 1    
    93   46  109 1    
    94   47   48 1    
    95   48  110 1    
    96   48  111 1    
    97   49   50 am   BACKBONE|DICT|INTERRES
    98   49  112 1    
    99   50   51 2    
   100   50   52 1    
   101   52   53 1    
   102   52   54 1    
   103   52  113 1    
   104   53  114 1    
   105   53  115 1    
   106   53  116 1    
   107   54   55 am   BACKBONE|DICT|INTERRES
   108   54  117 1    
   109   55   56 2    
   110   55   57 1    
   111   57   58 1    
   112   57   59 1    
   113   57  118 1    
   114   58  119 1    
   115   58  120 1    
   116   58  121 1    
   117   59   60 am   BACKBONE|DICT|INTERRES
   118   59  122 1    
   119   60   61 2    
   120   60   62 1    
   121   62   63 1    
   122   62   64 1    
   123   62  123 1    
   124   63  124 1    
   125   63  125 1    
   126   63  126 1    
   127   64   65 am   BACKBONE|DICT|INTERRES
   128   64  127 1    
   129   65   66 2    
@<TRIPOS>SUBSTRUCTURE
     1 UNK         1 GROUP             0       ****    0 ROOT    
