@<TRIPOS>MOLECULE
3R135
127   129    1
SMALL
USER_CHARGES


@<TRIPOS>ATOM
      1 CA        -79.8513   25.4256  -70.1651 C.3       0 UNK        -0.1998 
      2 C         -80.3198   25.9929  -71.4958 C.2       0 UNK         0.4909 
      3 O         -79.5097   26.1454  -72.4093 O.2       0 UNK        -0.5240 
      4 N         -81.6228   26.2885  -71.6169 N.am      1 UNK        -0.4739 
      5 CA        -82.3179   26.8842  -72.7739 C.3       1 UNK         0.0864 
      6 C6        -81.7987   28.3001  -73.1390 C.3       11 UNK        -0.0881 
      7 S7        -82.2654   29.5846  -71.9231 S.3       11 UNK        -0.2682 
      8 C8        -80.8795   29.6154  -70.7251 C.3       11 UNK         0.0289 
      9 C9        -79.4850   29.7588  -71.3340 C.ar      11 UNK        -0.0687 
     10 C10       -79.2565   30.5369  -72.4760 C.ar      11 UNK        -0.0823 
     11 C11       -77.9915   30.5672  -73.0695 C.ar      11 UNK        -0.0830 
     12 C12       -76.9361   29.8702  -72.4804 C.ar      11 UNK        -0.1021 
     13 C13       -77.1370   29.1246  -71.3182 C.ar      11 UNK        -0.0753 
     14 C14       -78.4126   29.0744  -70.7489 C.ar      11 UNK        -0.0933 
     15 C15       -75.9889   28.3156  -70.7345 C.3       11 UNK         0.0166 
     16 S16       -74.5259   29.3462  -70.3997 S.3       11 UNK        -0.2615 
     17 C17       -73.1696   28.1366  -70.5741 C.3       11 UNK        -0.0865 
     18 CA        -72.1239   28.5743  -71.6379 C.3       10 UNK         0.0862 
     19 C         -70.7866   27.7846  -71.4873 C.2       10 UNK         0.5551 
     20 N         -70.1847   27.2516  -72.5433 N.am      10 UNK        -0.7319 
     21 O         -70.2692   27.6617  -70.3796 O.2       10 UNK        -0.5018 
     22 N         -72.6832   28.5749  -73.0040 N.am      10 UNK        -0.4509 
     23 C         -72.2525   29.3559  -74.0035 C.2       10 UNK         0.4899 
     24 O         -71.4100   30.2442  -73.8622 O.2       10 UNK        -0.4839 
     25 CA        -72.8371   29.0595  -75.4023 C.3       9 UNK         0.0222 
     26 CB        -72.2162   29.9305  -76.5137 C.3       9 UNK        -0.1966 
     27 N         -72.7560   27.6369  -75.7655 N.am      9 UNK        -0.4218 
     28 C         -71.6637   26.8576  -75.7585 C.2       9 UNK         0.5020 
     29 O         -70.5307   27.2600  -75.4936 O.2       9 UNK        -0.5274 
     30 CA        -71.8661   25.3606  -76.0413 C.3       8 UNK         0.0270 
     31 CB        -72.1222   24.6058  -74.7278 C.3       8 UNK        -0.1976 
     32 N         -72.9350   25.0783  -77.0076 N.am      8 UNK        -0.4313 
     33 C         -72.7715   25.2262  -78.3310 C.2       8 UNK         0.5041 
     34 O         -71.7611   25.7080  -78.8454 O.2       8 UNK        -0.5577 
     35 CA        -73.9025   24.7359  -79.2412 C.3       7 UNK         0.0284 
     36 CB        -74.0164   23.2008  -79.2129 C.3       7 UNK        -0.1958 
     37 N         -75.1802   25.3388  -78.8644 N.am      7 UNK        -0.4454 
     38 C         -75.8525   26.2103  -79.6267 C.2       7 UNK         0.5089 
     39 O         -75.4650   26.6046  -80.7277 O.2       7 UNK        -0.5125 
     40 CA        -77.1984   26.7265  -79.0943 C.3       6 UNK         0.0408 
     41 CB        -78.3465   25.8145  -79.5546 C.3       6 UNK        -0.1791 
     42 N         -77.2638   26.8893  -77.6415 N.am      6 UNK        -0.4762 
     43 C         -76.5794   27.8064  -76.9423 C.2       6 UNK         0.5007 
     44 O         -75.6735   28.4962  -77.4092 O.2       6 UNK        -0.5032 
     45 CA        -76.9927   27.9851  -75.4732 C.3       5 UNK         0.0783 
     46 C46       -78.4101   28.5965  -75.3526 C.3       11 UNK        -0.0857 
     47 S47       -78.5227   30.3678  -75.8063 S.3       11 UNK        -0.2512 
     48 C48       -77.7772   31.2696  -74.3996 C.3       11 UNK         0.0225 
     49 N         -76.9264   26.6960  -74.7901 N.am      5 UNK        -0.4615 
     50 C         -75.8820   26.2390  -74.0893 C.2       4 UNK         0.5053 
     51 O         -74.8815   26.9088  -73.8383 O.2       4 UNK        -0.5105 
     52 CA        -75.9291   24.7695  -73.6233 C.3       4 UNK         0.0263 
     53 CB        -76.2984   24.6600  -72.1368 C.3       4 UNK        -0.1981 
     54 N         -76.8216   23.9345  -74.4313 N.am      4 UNK        -0.4224 
     55 C         -76.6087   23.6611  -75.7266 C.2       3 UNK         0.4895 
     56 O         -75.6130   24.0428  -76.3455 O.2       3 UNK        -0.5091 
     57 CA        -77.7046   22.8847  -76.4766 C.3       3 UNK         0.0250 
     58 CB        -77.3914   21.3808  -76.4656 C.3       3 UNK        -0.1996 
     59 N         -79.0714   23.1049  -75.9815 N.am      3 UNK        -0.4254 
     60 C         -79.6972   24.2892  -75.8970 C.2       2 UNK         0.5004 
     61 O         -79.1543   25.3608  -76.1715 O.2       2 UNK        -0.5226 
     62 CA        -81.1590   24.2962  -75.4224 C.3       2 UNK         0.0269 
     63 CB        -81.7015   22.9180  -74.9842 C.3       2 UNK        -0.1926 
     64 N         -81.2917   25.2524  -74.3268 N.am      2 UNK        -0.4687 
     65 C         -82.3798   25.9651  -74.0201 C.2       1 UNK         0.5165 
     66 O         -83.4276   25.9031  -74.6655 O.2       1 UNK        -0.5079 
     67 H67       -79.5396   24.3892  -70.2903 H         1 UNK         0.0900 
     68 H68       -78.9985   25.9937  -69.7954 H         1 UNK         0.0900 
     69 H69       -80.6348   25.4589  -69.4085 H         1 UNK         0.0900 
     70 H70       -82.2281   26.0951  -70.8311 H         1 UNK         0.2959 
     71 H71       -83.3565   26.9939  -72.4563 H         1 UNK         0.1079 
     72 H72       -80.7214   28.2917  -73.2845 H         1 UNK         0.0837 
     73 H73       -82.2167   28.6237  -74.0944 H         1 UNK         0.0837 
     74 H74       -81.0396   30.4445  -70.0350 H         1 UNK         0.0685 
     75 H75       -80.9355   28.7061  -70.1256 H         1 UNK         0.0685 
     76 H76       -80.0750   31.0647  -72.9454 H         1 UNK         0.1434 
     77 H77       -75.9578   29.8765  -72.9414 H         1 UNK         0.1329 
     78 H78       -78.5782   28.4748  -69.8649 H         1 UNK         0.1335 
     79 H79       -76.2869   27.8107  -69.8145 H         1 UNK         0.0680 
     80 H80       -75.7358   27.5363  -71.4492 H         1 UNK         0.0680 
     81 H81       -72.7095   28.0478  -69.5881 H         1 UNK         0.1032 
     82 H82       -73.5577   27.1445  -70.8098 H         1 UNK         0.1032 
     83 H83       -71.8532   29.6044  -71.3985 H         1 UNK         0.0461 
     84 H84       -70.5370   27.3910  -73.4826 H         1 UNK         0.3453 
     85 H85       -69.3189   26.7550  -72.4077 H         1 UNK         0.3453 
     86 H86       -73.3973   27.8793  -73.2082 H         1 UNK         0.2984 
     87 H87       -73.8981   29.3046  -75.3461 H         1 UNK         0.0554 
     88 H88       -72.3459   30.9917  -76.2984 H         1 UNK         0.0847 
     89 H89       -72.6894   29.7358  -77.4763 H         1 UNK         0.0847 
     90 H90       -71.1467   29.7469  -76.6217 H         1 UNK         0.0847 
     91 H91       -73.6433   27.1893  -75.9461 H         1 UNK         0.3141 
     92 H92       -70.9318   24.9764  -76.4575 H         1 UNK         0.0743 
     93 H93       -72.8967   25.0855  -74.1332 H         1 UNK         0.0784 
     94 H94       -72.4116   23.5692  -74.9018 H         1 UNK         0.0784 
     95 H95       -71.2208   24.5929  -74.1136 H         1 UNK         0.0784 
     96 H96       -73.7965   24.6640  -76.6602 H         1 UNK         0.3213 
     97 H97       -73.6338   25.0174  -80.2618 H         1 UNK         0.0855 
     98 H98       -74.2643   22.8195  -78.2225 H         1 UNK         0.0814 
     99 H99       -73.0755   22.7370  -79.5119 H         1 UNK         0.0814 
    100 H100      -74.7828   22.8508  -79.9044 H         1 UNK         0.0814 
    101 H101      -75.5575   25.0728  -77.9596 H         1 UNK         0.3105 
    102 H102      -77.3616   27.7121  -79.5355 H         1 UNK         0.0547 
    103 H103      -78.3558   25.7169  -80.6410 H         1 UNK         0.0837 
    104 H104      -78.2591   24.8113  -79.1390 H         1 UNK         0.0837 
    105 H105      -79.3158   26.2157  -79.2581 H         1 UNK         0.0837 
    106 H106      -77.9804   26.3512  -77.1567 H         1 UNK         0.3020 
    107 H107      -76.2818   28.6714  -75.0110 H         1 UNK         0.1245 
    108 H108      -78.7732   28.4618  -74.3360 H         1 UNK         0.0781 
    109 H109      -79.1280   28.0505  -75.9669 H         1 UNK         0.0781 
    110 H110      -78.2003   32.2742  -74.3559 H         1 UNK         0.0836 
    111 H111      -76.7115   31.3995  -74.5950 H         1 UNK         0.0836 
    112 H112      -77.7061   26.0719  -74.9645 H         1 UNK         0.3022 
    113 H113      -74.9282   24.3549  -73.7361 H         1 UNK         0.0747 
    114 H114      -76.3426   23.6206  -71.8116 H         1 UNK         0.0793 
    115 H115      -75.5523   25.1571  -71.5163 H         1 UNK         0.0793 
    116 H116      -77.2594   25.1216  -71.9206 H         1 UNK         0.0793 
    117 H117      -77.6680   23.6009  -73.9936 H         1 UNK         0.3047 
    118 H118      -77.6779   23.2240  -77.5130 H         1 UNK         0.0822 
    119 H119      -78.0891   20.8247  -77.0920 H         1 UNK         0.0807 
    120 H120      -77.4378   20.9651  -75.4582 H         1 UNK         0.0807 
    121 H121      -76.3894   21.1877  -76.8524 H         1 UNK         0.0807 
    122 H122      -79.5917   22.2781  -75.7253 H         1 UNK         0.2946 
    123 H123      -81.7490   24.6471  -76.2720 H         1 UNK         0.1144 
    124 H124      -82.7488   22.9870  -74.6890 H         1 UNK         0.0793 
    125 H125      -81.1494   22.5139  -74.1346 H         1 UNK         0.0793 
    126 H126      -81.6548   22.1922  -75.7972 H         1 UNK         0.0793 
    127 H127      -80.4560   25.4311  -73.7710 H         1 UNK         0.2896 
@<TRIPOS>BOND
     1    1    2 1    
     2    1   67 1    
     3    1   68 1    
     4    1   69 1    
     5    2    3 2    
     6    2    4 am   BACKBONE|DICT|INTERRES
     7    4    5 1    
     8    4   70 1    
     9    5    6 1    
    10    5   65 1    
    11    5   71 1    
    12    6    7 1    
    13    6   72 1    
    14    6   73 1    
    15    7    8 1    
    16    8    9 1    
    17    8   74 1    
    18    8   75 1    
    19    9   10 ar   
    20    9   14 ar   
    21   10   11 ar   
    22   10   76 1    
    23   11   12 ar   
    24   11   48 1    
    25   12   13 ar   
    26   12   77 1    
    27   13   14 ar   
    28   13   15 1    
    29   14   78 1    
    30   15   16 1    
    31   15   79 1    
    32   15   80 1    
    33   16   17 1    
    34   17   18 1    
    35   17   81 1    
    36   17   82 1    
    37   18   19 1    
    38   18   22 1    
    39   18   83 1    
    40   19   20 am   BACKBONE|DICT|INTERRES
    41   19   21 2    
    42   20   84 1    
    43   20   85 1    
    44   22   23 am   BACKBONE|DICT|INTERRES
    45   22   86 1    
    46   23   24 2    
    47   23   25 1    
    48   25   26 1    
    49   25   27 1    
    50   25   87 1    
    51   26   88 1    
    52   26   89 1    
    53   26   90 1    
    54   27   28 am   BACKBONE|DICT|INTERRES
    55   27   91 1    
    56   28   29 2    
    57   28   30 1    
    58   30   31 1    
    59   30   32 1    
    60   30   92 1    
    61   31   93 1    
    62   31   94 1    
    63   31   95 1    
    64   32   33 am   BACKBONE|DICT|INTERRES
    65   32   96 1    
    66   33   34 2    
    67   33   35 1    
    68   35   36 1    
    69   35   37 1    
    70   35   97 1    
    71   36   98 1    
    72   36   99 1    
    73   36  100 1    
    74   37   38 am   BACKBONE|DICT|INTERRES
    75   37  101 1    
    76   38   39 2    
    77   38   40 1    
    78   40   41 1    
    79   40   42 1    
    80   40  102 1    
    81   41  103 1    
    82   41  104 1    
    83   41  105 1    
    84   42   43 am   BACKBONE|DICT|INTERRES
    85   42  106 1    
    86   43   44 2    
    87   43   45 1    
    88   45   46 1    
    89   45   49 1    
    90   45  107 1    
    91   46   47 1    
    92   46  108 1    
    93   46  109 1    
    94   47   48 1    
    95   48  110 1    
    96   48  111 1    
    97   49   50 am   BACKBONE|DICT|INTERRES
    98   49  112 1    
    99   50   51 2    
   100   50   52 1    
   101   52   53 1    
   102   52   54 1    
   103   52  113 1    
   104   53  114 1    
   105   53  115 1    
   106   53  116 1    
   107   54   55 am   BACKBONE|DICT|INTERRES
   108   54  117 1    
   109   55   56 2    
   110   55   57 1    
   111   57   58 1    
   112   57   59 1    
   113   57  118 1    
   114   58  119 1    
   115   58  120 1    
   116   58  121 1    
   117   59   60 am   BACKBONE|DICT|INTERRES
   118   59  122 1    
   119   60   61 2    
   120   60   62 1    
   121   62   63 1    
   122   62   64 1    
   123   62  123 1    
   124   63  124 1    
   125   63  125 1    
   126   63  126 1    
   127   64   65 am   BACKBONE|DICT|INTERRES
   128   64  127 1    
   129   65   66 2    
@<TRIPOS>SUBSTRUCTURE
     1 UNK         1 GROUP             0       ****    0 ROOT    
