@<TRIPOS>MOLECULE
3R135
127   129    1
SMALL
USER_CHARGES


@<TRIPOS>ATOM
      1 CA        -81.8110   30.8461  -75.6622 C.3       0 UNK        -0.1998 
      2 C         -80.6846   29.8744  -75.3454 C.2       0 UNK         0.4909 
      3 O         -79.5549   30.0835  -75.7848 O.2       0 UNK        -0.5240 
      4 N         -80.9841   28.8143  -74.5841 N.am      1 UNK        -0.4739 
      5 CA        -80.0204   27.7841  -74.1679 C.3       1 UNK         0.0864 
      6 C6        -80.5016   27.0137  -72.9103 C.3       11 UNK        -0.0881 
      7 S7        -80.9341   28.1370  -71.5324 S.3       11 UNK        -0.2682 
      8 C8        -79.5250   27.9505  -70.3891 C.3       11 UNK         0.0289 
      9 C9        -78.1731   28.1620  -71.0599 C.ar      11 UNK        -0.0687 
     10 C10       -77.1925   27.1702  -70.9700 C.ar      11 UNK        -0.0823 
     11 C11       -75.9528   27.3383  -71.5913 C.ar      11 UNK        -0.0830 
     12 C12       -75.7069   28.4976  -72.3323 C.ar      11 UNK        -0.1021 
     13 C13       -76.6774   29.4996  -72.4285 C.ar      11 UNK        -0.0753 
     14 C14       -77.8990   29.3371  -71.7687 C.ar      11 UNK        -0.0933 
     15 C15       -76.4291   30.7336  -73.2842 C.3       11 UNK         0.0166 
     16 S16       -75.6988   32.1154  -72.3460 S.3       11 UNK        -0.2615 
     17 C17       -73.9995   31.5190  -72.0471 C.3       11 UNK        -0.0865 
     18 CA        -73.1117   31.5137  -73.3326 C.3       10 UNK         0.0862 
     19 C         -72.2252   32.7874  -73.4894 C.2       10 UNK         0.5551 
     20 N         -71.0371   32.6924  -74.0746 N.am      10 UNK        -0.7319 
     21 O         -72.6255   33.8830  -73.1035 O.2       10 UNK        -0.5018 
     22 N         -72.4058   30.2340  -73.5211 N.am      10 UNK        -0.4509 
     23 C         -71.4898   29.7133  -72.6898 C.2       10 UNK         0.4899 
     24 O         -71.1350   30.2626  -71.6465 O.2       10 UNK        -0.4839 
     25 CA        -70.8622   28.3552  -73.0618 C.3       9 UNK         0.0222 
     26 CB        -70.8717   27.3808  -71.8719 C.3       9 UNK        -0.1966 
     27 N         -71.5203   27.7180  -74.2062 N.am      9 UNK        -0.4218 
     28 C         -71.0962   27.8140  -75.4721 C.2       9 UNK         0.5020 
     29 O         -70.0825   28.4247  -75.8143 O.2       9 UNK        -0.5274 
     30 CA        -71.9545   27.1278  -76.5469 C.3       8 UNK         0.0270 
     31 CB        -71.5072   25.6701  -76.7366 C.3       8 UNK        -0.1976 
     32 N         -73.4040   27.1728  -76.3120 N.am      8 UNK        -0.4313 
     33 C         -74.1338   28.2974  -76.2234 C.2       8 UNK         0.5041 
     34 O         -73.6272   29.4147  -76.1085 O.2       8 UNK        -0.5577 
     35 CA        -75.6755   28.1849  -76.2642 C.3       7 UNK         0.0284 
     36 CB        -76.3091   29.3238  -77.0881 C.3       7 UNK        -0.1958 
     37 N         -76.1930   26.8877  -76.7119 N.am      7 UNK        -0.4454 
     38 C         -75.9827   26.2526  -77.8760 C.2       7 UNK         0.5089 
     39 O         -75.3698   26.7386  -78.8271 O.2       7 UNK        -0.5125 
     40 CA        -76.5071   24.8003  -77.9536 C.3       6 UNK         0.0408 
     41 CB        -75.7382   23.9444  -78.9818 C.3       6 UNK        -0.1791 
     42 N         -76.5353   24.1375  -76.6388 N.am      6 UNK        -0.4762 
     43 C         -75.4849   23.9585  -75.8195 C.2       6 UNK         0.5007 
     44 O         -74.3281   24.2431  -76.1297 O.2       6 UNK        -0.5032 
     45 CA        -75.7752   23.4330  -74.4002 C.3       5 UNK         0.0783 
     46 C46       -75.9700   24.5967  -73.3959 C.3       11 UNK        -0.0857 
     47 S47       -74.4322   25.5091  -73.0292 S.3       11 UNK        -0.2512 
     48 C48       -74.8727   26.2776  -71.4401 C.3       11 UNK         0.0225 
     49 N         -76.9239   22.5257  -74.3717 N.am      5 UNK        -0.4615 
     50 C         -76.9202   21.2631  -74.8097 C.2       4 UNK         0.5053 
     51 O         -75.9360   20.7197  -75.3111 O.2       4 UNK        -0.5105 
     52 CA        -78.2224   20.4565  -74.6477 C.3       4 UNK         0.0263 
     53 CB        -78.4187   20.0155  -73.1835 C.3       4 UNK        -0.1981 
     54 N         -79.4326   21.1037  -75.1780 N.am      4 UNK        -0.4224 
     55 C         -80.0345   22.2312  -74.7739 C.2       3 UNK         0.4895 
     56 O         -79.6239   22.9569  -73.8650 O.2       3 UNK        -0.5091 
     57 CA        -81.3297   22.6101  -75.5076 C.3       3 UNK         0.0250 
     58 CB        -82.5371   22.5243  -74.5595 C.3       3 UNK        -0.1996 
     59 N         -81.2377   23.9629  -76.0519 N.am      3 UNK        -0.4254 
     60 C         -80.4770   24.3117  -77.0982 C.2       2 UNK         0.5004 
     61 O         -79.8170   23.5123  -77.7618 O.2       2 UNK        -0.5226 
     62 CA        -80.4380   25.8067  -77.4591 C.3       2 UNK         0.0269 
     63 CB        -81.5292   26.1429  -78.4876 C.3       2 UNK        -0.1926 
     64 N         -80.5795   26.6863  -76.2966 N.am      2 UNK        -0.4687 
     65 C         -79.6784   26.8056  -75.3093 C.2       1 UNK         0.5165 
     66 O         -78.6142   26.1856  -75.2825 O.2       1 UNK        -0.5079 
     67 H67       -81.5599   31.8416  -75.2972 H         1 UNK         0.0900 
     68 H68       -82.7521   30.5441  -75.2030 H         1 UNK         0.0900 
     69 H69       -81.9623   30.9061  -76.7396 H         1 UNK         0.0900 
     70 H70       -81.9199   28.7110  -74.2172 H         1 UNK         0.2959 
     71 H71       -79.0830   28.2841  -73.9219 H         1 UNK         0.1079 
     72 H72       -81.3850   26.4158  -73.1424 H         1 UNK         0.0837 
     73 H73       -79.7400   26.3049  -72.5779 H         1 UNK         0.0837 
     74 H74       -79.6328   28.6705  -69.5769 H         1 UNK         0.0685 
     75 H75       -79.5816   26.9611  -69.9326 H         1 UNK         0.0685 
     76 H76       -77.3924   26.2673  -70.4092 H         1 UNK         0.1434 
     77 H77       -74.7578   28.6169  -72.8357 H         1 UNK         0.1329 
     78 H78       -78.6553   30.1068  -71.8418 H         1 UNK         0.1335 
     79 H79       -75.7886   30.4817  -74.1292 H         1 UNK         0.0680 
     80 H80       -77.3718   31.0693  -73.7198 H         1 UNK         0.0680 
     81 H81       -74.0665   30.5267  -71.6034 H         1 UNK         0.1032 
     82 H82       -73.5505   32.1303  -71.2621 H         1 UNK         0.1032 
     83 H83       -73.7676   31.5632  -74.2011 H         1 UNK         0.0461 
     84 H84       -70.4706   33.5188  -74.1833 H         1 UNK         0.3453 
     85 H85       -70.7051   31.8022  -74.4098 H         1 UNK         0.3453 
     86 H86       -72.6203   29.7557  -74.3912 H         1 UNK         0.2984 
     87 H87       -69.8164   28.5545  -73.3043 H         1 UNK         0.0554 
     88 H88       -70.4061   26.4304  -72.1331 H         1 UNK         0.0847 
     89 H89       -71.8825   27.1750  -71.5282 H         1 UNK         0.0847 
     90 H90       -70.3171   27.7873  -71.0251 H         1 UNK         0.0847 
     91 H91       -72.3675   27.1981  -74.0215 H         1 UNK         0.3141 
     92 H92       -71.7727   27.6572  -77.4845 H         1 UNK         0.0743 
     93 H93       -71.6913   25.0731  -75.8423 H         1 UNK         0.0784 
     94 H94       -72.0332   25.1986  -77.5672 H         1 UNK         0.0784 
     95 H95       -70.4399   25.6120  -76.9547 H         1 UNK         0.0784 
     96 H96       -73.8877   26.2811  -76.3520 H         1 UNK         0.3213 
     97 H97       -76.0145   28.2918  -75.2337 H         1 UNK         0.0855 
     98 H98       -76.0761   30.2988  -76.6587 H         1 UNK         0.0814 
     99 H99       -77.3948   29.2357  -77.1155 H         1 UNK         0.0814 
    100 H100      -75.9473   29.3269  -78.1166 H         1 UNK         0.0814 
    101 H101      -76.7886   26.4111  -76.0399 H         1 UNK         0.3105 
    102 H102      -77.5386   24.8636  -78.2941 H         1 UNK         0.0547 
    103 H103      -75.8371   24.3582  -79.9860 H         1 UNK         0.0837 
    104 H104      -74.6726   23.8958  -78.7559 H         1 UNK         0.0837 
    105 H105      -76.1219   22.9249  -79.0139 H         1 UNK         0.0837 
    106 H106      -77.4528   23.8952  -76.2889 H         1 UNK         0.3020 
    107 H107      -74.8983   22.8599  -74.0894 H         1 UNK         0.1245 
    108 H108      -76.3488   24.1978  -72.4534 H         1 UNK         0.0781 
    109 H109      -76.7261   25.3020  -73.7427 H         1 UNK         0.0781 
    110 H110      -73.9913   26.7413  -71.0010 H         1 UNK         0.0836 
    111 H111      -75.1789   25.5000  -70.7386 H         1 UNK         0.0836 
    112 H112      -77.8006   22.8886  -74.0016 H         1 UNK         0.3022 
    113 H113      -78.0964   19.5494  -75.2414 H         1 UNK         0.0747 
    114 H114      -79.2837   19.3604  -73.0802 H         1 UNK         0.0793 
    115 H115      -77.5497   19.4629  -72.8238 H         1 UNK         0.0793 
    116 H116      -78.5609   20.8646  -72.5141 H         1 UNK         0.0793 
    117 H117      -79.8472   20.6219  -75.9644 H         1 UNK         0.3047 
    118 H118      -81.4949   21.9170  -76.3356 H         1 UNK         0.0822 
    119 H119      -83.4671   22.7583  -75.0780 H         1 UNK         0.0807 
    120 H120      -82.4401   23.2105  -73.7169 H         1 UNK         0.0807 
    121 H121      -82.6396   21.5186  -74.1496 H         1 UNK         0.0807 
    122 H122      -81.7178   24.6919  -75.5461 H         1 UNK         0.2946 
    123 H123      -79.4688   26.0143  -77.9146 H         1 UNK         0.1144 
    124 H124      -81.4310   25.5194  -79.3776 H         1 UNK         0.0793 
    125 H125      -81.4613   27.1812  -78.8132 H         1 UNK         0.0793 
    126 H126      -82.5298   25.9809  -78.0850 H         1 UNK         0.0793 
    127 H127      -81.4132   27.2539  -76.2477 H         1 UNK         0.2896 
@<TRIPOS>BOND
     1    1    2 1    
     2    1   67 1    
     3    1   68 1    
     4    1   69 1    
     5    2    3 2    
     6    2    4 am   BACKBONE|DICT|INTERRES
     7    4    5 1    
     8    4   70 1    
     9    5    6 1    
    10    5   65 1    
    11    5   71 1    
    12    6    7 1    
    13    6   72 1    
    14    6   73 1    
    15    7    8 1    
    16    8    9 1    
    17    8   74 1    
    18    8   75 1    
    19    9   10 ar   
    20    9   14 ar   
    21   10   11 ar   
    22   10   76 1    
    23   11   12 ar   
    24   11   48 1    
    25   12   13 ar   
    26   12   77 1    
    27   13   14 ar   
    28   13   15 1    
    29   14   78 1    
    30   15   16 1    
    31   15   79 1    
    32   15   80 1    
    33   16   17 1    
    34   17   18 1    
    35   17   81 1    
    36   17   82 1    
    37   18   19 1    
    38   18   22 1    
    39   18   83 1    
    40   19   20 am   BACKBONE|DICT|INTERRES
    41   19   21 2    
    42   20   84 1    
    43   20   85 1    
    44   22   23 am   BACKBONE|DICT|INTERRES
    45   22   86 1    
    46   23   24 2    
    47   23   25 1    
    48   25   26 1    
    49   25   27 1    
    50   25   87 1    
    51   26   88 1    
    52   26   89 1    
    53   26   90 1    
    54   27   28 am   BACKBONE|DICT|INTERRES
    55   27   91 1    
    56   28   29 2    
    57   28   30 1    
    58   30   31 1    
    59   30   32 1    
    60   30   92 1    
    61   31   93 1    
    62   31   94 1    
    63   31   95 1    
    64   32   33 am   BACKBONE|DICT|INTERRES
    65   32   96 1    
    66   33   34 2    
    67   33   35 1    
    68   35   36 1    
    69   35   37 1    
    70   35   97 1    
    71   36   98 1    
    72   36   99 1    
    73   36  100 1    
    74   37   38 am   BACKBONE|DICT|INTERRES
    75   37  101 1    
    76   38   39 2    
    77   38   40 1    
    78   40   41 1    
    79   40   42 1    
    80   40  102 1    
    81   41  103 1    
    82   41  104 1    
    83   41  105 1    
    84   42   43 am   BACKBONE|DICT|INTERRES
    85   42  106 1    
    86   43   44 2    
    87   43   45 1    
    88   45   46 1    
    89   45   49 1    
    90   45  107 1    
    91   46   47 1    
    92   46  108 1    
    93   46  109 1    
    94   47   48 1    
    95   48  110 1    
    96   48  111 1    
    97   49   50 am   BACKBONE|DICT|INTERRES
    98   49  112 1    
    99   50   51 2    
   100   50   52 1    
   101   52   53 1    
   102   52   54 1    
   103   52  113 1    
   104   53  114 1    
   105   53  115 1    
   106   53  116 1    
   107   54   55 am   BACKBONE|DICT|INTERRES
   108   54  117 1    
   109   55   56 2    
   110   55   57 1    
   111   57   58 1    
   112   57   59 1    
   113   57  118 1    
   114   58  119 1    
   115   58  120 1    
   116   58  121 1    
   117   59   60 am   BACKBONE|DICT|INTERRES
   118   59  122 1    
   119   60   61 2    
   120   60   62 1    
   121   62   63 1    
   122   62   64 1    
   123   62  123 1    
   124   63  124 1    
   125   63  125 1    
   126   63  126 1    
   127   64   65 am   BACKBONE|DICT|INTERRES
   128   64  127 1    
   129   65   66 2    
@<TRIPOS>SUBSTRUCTURE
     1 UNK         1 GROUP             0       ****    0 ROOT    
