@<TRIPOS>MOLECULE
3R135
127   129    1
SMALL
USER_CHARGES


@<TRIPOS>ATOM
      1 CA        -81.3728   30.9361  -76.1957 C.3       0 UNK        -0.1998 
      2 C         -80.3162   29.9755  -75.6720 C.2       0 UNK         0.4909 
      3 O         -79.1292   30.1763  -75.9237 O.2       0 UNK        -0.5240 
      4 N         -80.7386   28.9359  -74.9421 N.am      1 UNK        -0.4739 
      5 CA        -79.8539   27.9155  -74.3603 C.3       1 UNK         0.0864 
      6 C6        -80.4519   27.3021  -73.0689 C.3       11 UNK        -0.0881 
      7 S7        -80.8054   28.5880  -71.8177 S.3       11 UNK        -0.2682 
      8 C8        -79.5163   28.3073  -70.5575 C.3       11 UNK         0.0289 
      9 C9        -78.1032   28.2401  -71.1275 C.ar      11 UNK        -0.0687 
     10 C10       -77.2918   27.1404  -70.8305 C.ar      11 UNK        -0.0823 
     11 C11       -75.9927   27.0553  -71.3378 C.ar      11 UNK        -0.0830 
     12 C12       -75.5121   28.0770  -72.1612 C.ar      11 UNK        -0.1021 
     13 C13       -76.3162   29.1729  -72.4813 C.ar      11 UNK        -0.0753 
     14 C14       -77.6023   29.2637  -71.9409 C.ar      11 UNK        -0.0933 
     15 C15       -75.7990   30.2302  -73.4419 C.3       11 UNK         0.0166 
     16 S16       -75.0813   31.6486  -72.5630 S.3       11 UNK        -0.2615 
     17 C17       -73.9638   32.3080  -73.8508 C.3       11 UNK        -0.0865 
     18 CA        -72.4377   32.1643  -73.5646 C.3       10 UNK         0.0862 
     19 C         -71.9053   33.0916  -72.4267 C.2       10 UNK         0.5551 
     20 N         -70.8295   32.7381  -71.7345 N.am      10 UNK        -0.7319 
     21 O         -72.4392   34.1752  -72.2009 O.2       10 UNK        -0.5018 
     22 N         -71.9532   30.7678  -73.5810 N.am      10 UNK        -0.4509 
     23 C         -71.9874   29.8548  -72.5996 C.2       10 UNK         0.4899 
     24 O         -72.4524   30.0544  -71.4780 O.2       10 UNK        -0.4839 
     25 CA        -71.3668   28.4820  -72.9297 C.3       9 UNK         0.0222 
     26 CB        -71.4870   27.4743  -71.7719 C.3       9 UNK        -0.1966 
     27 N         -71.9310   27.8864  -74.1452 N.am      9 UNK        -0.4218 
     28 C         -71.5322   28.1771  -75.3902 C.2       9 UNK         0.5020 
     29 O         -70.6931   29.0406  -75.6527 O.2       9 UNK        -0.5274 
     30 CA        -72.1758   27.3761  -76.5302 C.3       8 UNK         0.0270 
     31 CB        -71.5852   25.9586  -76.6027 C.3       8 UNK        -0.1976 
     32 N         -73.6354   27.2993  -76.4383 N.am      8 UNK        -0.4313 
     33 C         -74.4591   28.3359  -76.6630 C.2       8 UNK         0.5041 
     34 O         -74.0587   29.4895  -76.8283 O.2       8 UNK        -0.5577 
     35 CA        -75.9771   28.0530  -76.7363 C.3       7 UNK         0.0284 
     36 CB        -76.6914   28.9729  -77.7477 C.3       7 UNK        -0.1958 
     37 N         -76.3144   26.6498  -77.0005 N.am      7 UNK        -0.4454 
     38 C         -75.9693   25.8994  -78.0591 C.2       7 UNK         0.5089 
     39 O         -75.3763   26.3351  -79.0465 O.2       7 UNK        -0.5125 
     40 CA        -76.3191   24.3969  -77.9794 C.3       6 UNK         0.0408 
     41 CB        -75.3253   23.5248  -78.7748 C.3       6 UNK        -0.1791 
     42 N         -76.4535   23.8887  -76.6043 N.am      6 UNK        -0.4762 
     43 C         -75.5196   23.9216  -75.6371 C.2       6 UNK         0.5007 
     44 O         -74.4089   24.4313  -75.7925 O.2       6 UNK        -0.5032 
     45 CA        -75.8854   23.3154  -74.2643 C.3       5 UNK         0.0783 
     46 C46       -76.0831   24.4110  -73.1868 C.3       11 UNK        -0.0857 
     47 S47       -74.5085   24.9911  -72.4750 S.3       11 UNK        -0.2512 
     48 C48       -75.1119   25.8609  -70.9922 C.3       11 UNK         0.0225 
     49 N         -77.0537   22.4327  -74.3278 N.am      5 UNK        -0.4615 
     50 C         -77.0493   21.1751  -74.7805 C.2       4 UNK         0.5053 
     51 O         -76.0466   20.6187  -75.2277 O.2       4 UNK        -0.5105 
     52 CA        -78.3770   20.3956  -74.7239 C.3       4 UNK         0.0263 
     53 CB        -78.6120   19.8132  -73.3162 C.3       4 UNK        -0.1981 
     54 N         -79.5587   21.1297  -75.2045 N.am      4 UNK        -0.4224 
     55 C         -80.1492   22.2168  -74.6876 C.2       3 UNK         0.4895 
     56 O         -79.7477   22.8221  -73.6915 O.2       3 UNK        -0.5091 
     57 CA        -81.3936   22.7316  -75.4287 C.3       3 UNK         0.0250 
     58 CB        -82.5935   22.8556  -74.4744 C.3       3 UNK        -0.1996 
     59 N         -81.1334   24.0304  -76.0477 N.am      3 UNK        -0.4254 
     60 C         -80.2831   24.2421  -77.0618 C.2       2 UNK         0.5004 
     61 O         -79.6565   23.3468  -77.6281 O.2       2 UNK        -0.5226 
     62 CA        -80.0900   25.6990  -77.5179 C.3       2 UNK         0.0269 
     63 CB        -81.0297   26.0285  -78.6880 C.3       2 UNK        -0.1926 
     64 N         -80.2867   26.6801  -76.4473 N.am      2 UNK        -0.4687 
     65 C         -79.4884   26.8167  -75.3774 C.2       1 UNK         0.5165 
     66 O         -78.4894   26.1216  -75.1881 O.2       1 UNK        -0.5079 
     67 H67       -81.1836   31.9412  -75.8196 H         1 UNK         0.0900 
     68 H68       -82.3776   30.6437  -75.8914 H         1 UNK         0.0900 
     69 H69       -81.3431   30.9683  -77.2844 H         1 UNK         0.0900 
     70 H70       -81.7216   28.8408  -74.7286 H         1 UNK         0.2959 
     71 H71       -78.9084   28.3913  -74.0983 H         1 UNK         0.1079 
     72 H72       -81.3827   26.7755  -73.2878 H         1 UNK         0.0837 
     73 H73       -79.7769   26.5556  -72.6449 H         1 UNK         0.0837 
     74 H74       -79.5614   29.1134  -69.8242 H         1 UNK         0.0685 
     75 H75       -79.7604   27.3899  -70.0196 H         1 UNK         0.0685 
     76 H76       -77.6717   26.3494  -70.1984 H         1 UNK         0.1434 
     77 H77       -74.5135   28.0122  -72.5674 H         1 UNK         0.1329 
     78 H78       -78.2257   30.1146  -72.1802 H         1 UNK         0.1335 
     79 H79       -75.0408   29.7876  -74.0891 H         1 UNK         0.0680 
     80 H80       -76.6020   30.5736  -74.0965 H         1 UNK         0.0680 
     81 H81       -74.2167   33.3593  -73.9993 H         1 UNK         0.1032 
     82 H82       -74.1912   31.8348  -74.8075 H         1 UNK         0.1032 
     83 H83       -71.9534   32.5894  -74.4445 H         1 UNK         0.0461 
     84 H84       -70.4816   33.3499  -71.0133 H         1 UNK         0.3453 
     85 H85       -70.3847   31.8510  -71.9050 H         1 UNK         0.3453 
     86 H86       -71.5168   30.4734  -74.4487 H         1 UNK         0.2984 
     87 H87       -70.2999   28.6528  -73.0893 H         1 UNK         0.0554 
     88 H88       -71.0186   26.5218  -72.0202 H         1 UNK         0.0847 
     89 H89       -72.5259   27.2801  -71.5134 H         1 UNK         0.0847 
     90 H90       -70.9951   27.8505  -70.8740 H         1 UNK         0.0847 
     91 H91       -72.6433   27.1808  -74.0233 H         1 UNK         0.3141 
     92 H92       -71.9311   27.8846  -77.4655 H         1 UNK         0.0743 
     93 H93       -71.8035   25.3803  -75.7038 H         1 UNK         0.0784 
     94 H94       -71.9819   25.4081  -77.4562 H         1 UNK         0.0784 
     95 H95       -70.5005   25.9922  -76.7141 H         1 UNK         0.0784 
     96 H96       -74.0333   26.3752  -76.2951 H         1 UNK         0.3213 
     97 H97       -76.3780   28.2752  -75.7463 H         1 UNK         0.0855 
     98 H98       -76.6104   30.0185  -77.4483 H         1 UNK         0.0814 
     99 H99       -77.7541   28.7399  -77.8142 H         1 UNK         0.0814 
    100 H100      -76.2648   28.8857  -78.7472 H         1 UNK         0.0814 
    101 H101      -76.8519   26.1963  -76.2659 H         1 UNK         0.3105 
    102 H102      -77.2952   24.2856  -78.4500 H         1 UNK         0.0547 
    103 H103      -75.3242   23.7944  -79.8316 H         1 UNK         0.0837 
    104 H104      -74.3040   23.6396  -78.4099 H         1 UNK         0.0837 
    105 H105      -75.5869   22.4685  -78.7130 H         1 UNK         0.0837 
    106 H106      -77.3481   23.4753  -76.3770 H         1 UNK         0.3020 
    107 H107      -75.0351   22.6962  -73.9681 H         1 UNK         0.1245 
    108 H108      -76.6798   24.0173  -72.3620 H         1 UNK         0.0781 
    109 H109      -76.6416   25.2646  -73.5737 H         1 UNK         0.0781 
    110 H110      -74.2614   26.2042  -70.4032 H         1 UNK         0.0836 
    111 H111      -75.6469   25.1496  -70.3609 H         1 UNK         0.0836 
    112 H112      -77.9367   22.8013  -73.9790 H         1 UNK         0.3022 
    113 H113      -78.2650   19.5516  -75.4067 H         1 UNK         0.0747 
    114 H114      -79.5032   19.1861  -73.2907 H         1 UNK         0.0793 
    115 H115      -77.7703   19.1919  -73.0071 H         1 UNK         0.0793 
    116 H116      -78.7300   20.5937  -72.5640 H         1 UNK         0.0793 
    117 H117      -79.9492   20.7664  -76.0637 H         1 UNK         0.3047 
    118 H118      -81.6604   22.0253  -76.2181 H         1 UNK         0.0822 
    119 H119      -83.4932   23.1670  -75.0055 H         1 UNK         0.0807 
    120 H120      -82.4063   23.5779  -73.6785 H         1 UNK         0.0807 
    121 H121      -82.8135   21.8984  -73.9995 H         1 UNK         0.0807 
    122 H122      -81.5828   24.8312  -75.6301 H         1 UNK         0.2946 
    123 H123      -79.0632   25.7967  -77.8724 H         1 UNK         0.1144 
    124 H124      -80.8858   25.3287  -79.5126 H         1 UNK         0.0793 
    125 H125      -80.8414   27.0288  -79.0787 H         1 UNK         0.0793 
    126 H126      -82.0784   25.9736  -78.3932 H         1 UNK         0.0793 
    127 H127      -81.0706   27.3100  -76.5387 H         1 UNK         0.2896 
@<TRIPOS>BOND
     1    1    2 1    
     2    1   67 1    
     3    1   68 1    
     4    1   69 1    
     5    2    3 2    
     6    2    4 am   BACKBONE|DICT|INTERRES
     7    4    5 1    
     8    4   70 1    
     9    5    6 1    
    10    5   65 1    
    11    5   71 1    
    12    6    7 1    
    13    6   72 1    
    14    6   73 1    
    15    7    8 1    
    16    8    9 1    
    17    8   74 1    
    18    8   75 1    
    19    9   10 ar   
    20    9   14 ar   
    21   10   11 ar   
    22   10   76 1    
    23   11   12 ar   
    24   11   48 1    
    25   12   13 ar   
    26   12   77 1    
    27   13   14 ar   
    28   13   15 1    
    29   14   78 1    
    30   15   16 1    
    31   15   79 1    
    32   15   80 1    
    33   16   17 1    
    34   17   18 1    
    35   17   81 1    
    36   17   82 1    
    37   18   19 1    
    38   18   22 1    
    39   18   83 1    
    40   19   20 am   BACKBONE|DICT|INTERRES
    41   19   21 2    
    42   20   84 1    
    43   20   85 1    
    44   22   23 am   BACKBONE|DICT|INTERRES
    45   22   86 1    
    46   23   24 2    
    47   23   25 1    
    48   25   26 1    
    49   25   27 1    
    50   25   87 1    
    51   26   88 1    
    52   26   89 1    
    53   26   90 1    
    54   27   28 am   BACKBONE|DICT|INTERRES
    55   27   91 1    
    56   28   29 2    
    57   28   30 1    
    58   30   31 1    
    59   30   32 1    
    60   30   92 1    
    61   31   93 1    
    62   31   94 1    
    63   31   95 1    
    64   32   33 am   BACKBONE|DICT|INTERRES
    65   32   96 1    
    66   33   34 2    
    67   33   35 1    
    68   35   36 1    
    69   35   37 1    
    70   35   97 1    
    71   36   98 1    
    72   36   99 1    
    73   36  100 1    
    74   37   38 am   BACKBONE|DICT|INTERRES
    75   37  101 1    
    76   38   39 2    
    77   38   40 1    
    78   40   41 1    
    79   40   42 1    
    80   40  102 1    
    81   41  103 1    
    82   41  104 1    
    83   41  105 1    
    84   42   43 am   BACKBONE|DICT|INTERRES
    85   42  106 1    
    86   43   44 2    
    87   43   45 1    
    88   45   46 1    
    89   45   49 1    
    90   45  107 1    
    91   46   47 1    
    92   46  108 1    
    93   46  109 1    
    94   47   48 1    
    95   48  110 1    
    96   48  111 1    
    97   49   50 am   BACKBONE|DICT|INTERRES
    98   49  112 1    
    99   50   51 2    
   100   50   52 1    
   101   52   53 1    
   102   52   54 1    
   103   52  113 1    
   104   53  114 1    
   105   53  115 1    
   106   53  116 1    
   107   54   55 am   BACKBONE|DICT|INTERRES
   108   54  117 1    
   109   55   56 2    
   110   55   57 1    
   111   57   58 1    
   112   57   59 1    
   113   57  118 1    
   114   58  119 1    
   115   58  120 1    
   116   58  121 1    
   117   59   60 am   BACKBONE|DICT|INTERRES
   118   59  122 1    
   119   60   61 2    
   120   60   62 1    
   121   62   63 1    
   122   62   64 1    
   123   62  123 1    
   124   63  124 1    
   125   63  125 1    
   126   63  126 1    
   127   64   65 am   BACKBONE|DICT|INTERRES
   128   64  127 1    
   129   65   66 2    
@<TRIPOS>SUBSTRUCTURE
     1 UNK         1 GROUP             0       ****    0 ROOT    
