@<TRIPOS>MOLECULE
3R135
127   129    1
SMALL
USER_CHARGES


@<TRIPOS>ATOM
      1 CA        -82.7415   26.2075  -71.5831 C.3       0 UNK        -0.1998 
      2 C         -83.2162   26.6412  -72.9619 C.2       0 UNK         0.4909 
      3 O         -84.1604   26.0603  -73.4966 O.2       0 UNK        -0.5240 
      4 N         -82.5625   27.6546  -73.5460 N.am      1 UNK        -0.4739 
      5 CA        -82.8487   28.1824  -74.8884 C.3       1 UNK         0.0864 
      6 C6        -82.4161   29.6678  -75.0175 C.3       11 UNK        -0.0881 
      7 S7        -80.6135   29.9410  -74.9170 S.3       11 UNK        -0.2682 
      8 C8        -80.3592   30.3522  -73.1635 C.3       11 UNK         0.0289 
      9 C9        -79.0568   29.7478  -72.6595 C.ar      11 UNK        -0.0687 
     10 C10       -79.0644   28.5416  -71.9507 C.ar      11 UNK        -0.0823 
     11 C11       -77.8693   27.9815  -71.4917 C.ar      11 UNK        -0.0830 
     12 C12       -76.6661   28.6398  -71.7432 C.ar      11 UNK        -0.1021 
     13 C13       -76.6340   29.8312  -72.4720 C.ar      11 UNK        -0.0753 
     14 C14       -77.8387   30.3853  -72.9188 C.ar      11 UNK        -0.0933 
     15 C15       -75.3073   30.4849  -72.8464 C.3       11 UNK         0.0166 
     16 S16       -74.1991   30.7924  -71.4286 S.3       11 UNK        -0.2615 
     17 C17       -73.1476   29.2938  -71.3811 C.3       11 UNK        -0.0865 
     18 CA        -71.8555   29.4426  -72.2205 C.3       10 UNK         0.0862 
     19 C         -70.8549   28.3029  -71.9048 C.2       10 UNK         0.5551 
     20 N         -69.7668   28.6039  -71.2100 N.am      10 UNK        -0.7319 
     21 O         -71.0790   27.1437  -72.2471 O.2       10 UNK        -0.5018 
     22 N         -72.1684   29.4322  -73.6513 N.am      10 UNK        -0.4509 
     23 C         -71.5778   30.1971  -74.5742 C.2       10 UNK         0.4899 
     24 O         -70.7256   31.0507  -74.3213 O.2       10 UNK        -0.4839 
     25 CA        -72.0303   29.9571  -76.0260 C.3       9 UNK         0.0222 
     26 CB        -71.1844   30.7230  -77.0656 C.3       9 UNK        -0.1966 
     27 N         -72.1073   28.5298  -76.3551 N.am      9 UNK        -0.4218 
     28 C         -71.1060   27.6337  -76.3522 C.2       9 UNK         0.5020 
     29 O         -69.9337   27.9140  -76.0976 O.2       9 UNK        -0.5274 
     30 CA        -71.4564   26.1677  -76.6797 C.3       8 UNK         0.0270 
     31 CB        -71.3192   25.2935  -75.4218 C.3       8 UNK        -0.1976 
     32 N         -72.7998   25.9863  -77.2338 N.am      8 UNK        -0.4313 
     33 C         -73.2007   26.3812  -78.4493 C.2       8 UNK         0.5041 
     34 O         -72.4513   26.8695  -79.2954 O.2       8 UNK        -0.5577 
     35 CA        -74.7037   26.2545  -78.7498 C.3       7 UNK         0.0284 
     36 CB        -75.0343   24.8634  -79.3141 C.3       7 UNK        -0.1958 
     37 N         -75.5407   26.5258  -77.5754 N.am      7 UNK        -0.4454 
     38 C         -75.6636   27.7227  -76.9818 C.2       7 UNK         0.5089 
     39 O         -75.0763   28.7371  -77.3558 O.2       7 UNK        -0.5125 
     40 CA        -76.5687   27.7873  -75.7417 C.3       6 UNK         0.0408 
     41 CB        -78.0416   27.8599  -76.1583 C.3       6 UNK        -0.1791 
     42 N         -76.3700   26.6447  -74.8499 N.am      6 UNK        -0.4762 
     43 C         -75.2557   26.4387  -74.1316 C.2       6 UNK         0.5007 
     44 O         -74.3002   27.2192  -74.1118 O.2       6 UNK        -0.5032 
     45 CA        -75.1612   25.1060  -73.3596 C.3       5 UNK         0.0783 
     46 C46       -75.7252   25.1973  -71.9173 C.3       11 UNK        -0.0857 
     47 S47       -77.5536   25.2408  -71.8081 S.3       11 UNK        -0.2512 
     48 C48       -77.8720   26.6688  -70.7222 C.3       11 UNK         0.0225 
     49 N         -75.7298   23.9747  -74.0997 N.am      5 UNK        -0.4615 
     50 C         -75.3234   23.5308  -75.2940 C.2       4 UNK         0.5053 
     51 O         -74.3953   24.0414  -75.9185 O.2       4 UNK        -0.5105 
     52 CA        -76.0801   22.3494  -75.9322 C.3       4 UNK         0.0263 
     53 CB        -75.3863   21.0126  -75.6073 C.3       4 UNK        -0.1981 
     54 N         -77.5218   22.3008  -75.6400 N.am      4 UNK        -0.4224 
     55 C         -78.1381   22.0857  -74.4679 C.2       3 UNK         0.4895 
     56 O         -77.5406   21.8397  -73.4191 O.2       3 UNK        -0.5091 
     57 CA        -79.6775   22.1894  -74.4637 C.3       3 UNK         0.0250 
     58 CB        -80.2384   22.5158  -73.0624 C.3       3 UNK        -0.1996 
     59 N         -80.2421   23.1227  -75.4519 N.am      3 UNK        -0.4254 
     60 C         -79.9743   24.4316  -75.5900 C.2       2 UNK         0.5004 
     61 O         -79.0688   25.0165  -74.9938 O.2       2 UNK        -0.5226 
     62 CA        -80.8954   25.2458  -76.5134 C.3       2 UNK         0.0269 
     63 CB        -81.9701   24.4001  -77.2402 C.3       2 UNK        -0.1926 
     64 N         -81.5071   26.2639  -75.6643 N.am      2 UNK        -0.4687 
     65 C         -82.2916   27.2875  -76.0255 C.2       1 UNK         0.5165 
     66 O         -82.5921   27.5383  -77.1938 O.2       1 UNK        -0.5079 
     67 H67       -83.5946   26.0607  -70.9211 H         1 UNK         0.0900 
     68 H68       -82.1982   25.2652  -71.6526 H         1 UNK         0.0900 
     69 H69       -82.0874   26.9482  -71.1248 H         1 UNK         0.0900 
     70 H70       -81.7862   28.0910  -73.0730 H         1 UNK         0.2959 
     71 H71       -83.9334   28.1639  -75.0185 H         1 UNK         0.1079 
     72 H72       -82.9168   30.2708  -74.2583 H         1 UNK         0.0837 
     73 H73       -82.7590   30.0697  -75.9727 H         1 UNK         0.0837 
     74 H74       -81.1959   29.9987  -72.5599 H         1 UNK         0.0685 
     75 H75       -80.3388   31.4370  -73.0494 H         1 UNK         0.0685 
     76 H76       -79.9970   28.0342  -71.7553 H         1 UNK         0.1434 
     77 H77       -75.7523   28.2049  -71.3814 H         1 UNK         0.1329 
     78 H78       -77.8316   31.3024  -73.4919 H         1 UNK         0.1335 
     79 H79       -74.8085   29.8642  -73.5891 H         1 UNK         0.0680 
     80 H80       -75.4886   31.4440  -73.3336 H         1 UNK         0.0680 
     81 H81       -73.6967   28.4141  -71.7118 H         1 UNK         0.1032 
     82 H82       -72.9002   29.1154  -70.3327 H         1 UNK         0.1032 
     83 H83       -71.3910   30.3942  -71.9527 H         1 UNK         0.0461 
     84 H84       -69.5795   29.5508  -70.9186 H         1 UNK         0.3453 
     85 H85       -69.1130   27.8711  -70.9826 H         1 UNK         0.3453 
     86 H86       -72.8136   28.7076  -73.9486 H         1 UNK         0.2984 
     87 H87       -73.0509   30.3368  -76.0917 H         1 UNK         0.0554 
     88 H88       -71.2323   31.7984  -76.8908 H         1 UNK         0.0847 
     89 H89       -71.5446   30.5435  -78.0785 H         1 UNK         0.0847 
     90 H90       -70.1333   30.4354  -77.0270 H         1 UNK         0.0847 
     91 H91       -73.0351   28.1947  -76.5836 H         1 UNK         0.3141 
     92 H92       -70.7355   25.8189  -77.4218 H         1 UNK         0.0743 
     93 H93       -70.3134   25.3604  -75.0048 H         1 UNK         0.0784 
     94 H94       -72.0139   25.6045  -74.6406 H         1 UNK         0.0784 
     95 H95       -71.5100   24.2432  -75.6429 H         1 UNK         0.0784 
     96 H96       -73.4705   25.4963  -76.6444 H         1 UNK         0.3213 
     97 H97       -74.9501   26.9977  -79.5115 H         1 UNK         0.0855 
     98 H98       -74.7949   24.0694  -78.6065 H         1 UNK         0.0814 
     99 H99       -74.4626   24.6690  -80.2225 H         1 UNK         0.0814 
    100 H100      -76.0898   24.7785  -79.5732 H         1 UNK         0.0814 
    101 H101      -76.0228   25.7404  -77.1645 H         1 UNK         0.3105 
    102 H102      -76.3280   28.6957  -75.1871 H         1 UNK         0.0547 
    103 H103      -78.3179   27.0381  -76.8177 H         1 UNK         0.0837 
    104 H104      -78.2525   28.7900  -76.6871 H         1 UNK         0.0837 
    105 H105      -78.6951   27.8201  -75.2872 H         1 UNK         0.0837 
    106 H106      -77.1310   25.9759  -74.7765 H         1 UNK         0.3020 
    107 H107      -74.0921   24.9004  -73.2693 H         1 UNK         0.1245 
    108 H108      -75.2867   26.0420  -71.3870 H         1 UNK         0.0781 
    109 H109      -75.3998   24.3186  -71.3585 H         1 UNK         0.0781 
    110 H110      -77.1380   26.6963  -69.9155 H         1 UNK         0.0836 
    111 H111      -78.8402   26.5256  -70.2400 H         1 UNK         0.0836 
    112 H112      -76.4949   23.4823  -73.6490 H         1 UNK         0.3022 
    113 H113      -76.0112   22.4934  -77.0115 H         1 UNK         0.0747 
    114 H114      -75.8765   20.1786  -76.1095 H         1 UNK         0.0793 
    115 H115      -74.3472   21.0253  -75.9392 H         1 UNK         0.0793 
    116 H116      -75.3792   20.8035  -74.5373 H         1 UNK         0.0793 
    117 H117      -78.1205   22.5200  -76.4238 H         1 UNK         0.3047 
    118 H118      -80.0392   21.1975  -74.7387 H         1 UNK         0.0822 
    119 H119      -81.3282   22.5345  -73.0650 H         1 UNK         0.0807 
    120 H120      -79.8888   23.4855  -72.7066 H         1 UNK         0.0807 
    121 H121      -79.9321   21.7696  -72.3283 H         1 UNK         0.0807 
    122 H122      -80.9948   22.7478  -76.0127 H         1 UNK         0.2946 
    123 H123      -80.2686   25.7383  -77.2584 H         1 UNK         0.1144 
    124 H124      -82.5478   25.0055  -77.9381 H         1 UNK         0.0793 
    125 H125      -82.6756   23.9475  -76.5420 H         1 UNK         0.0793 
    126 H126      -81.5172   23.6031  -77.8316 H         1 UNK         0.0793 
    127 H127      -81.2734   26.1808  -74.6841 H         1 UNK         0.2896 
@<TRIPOS>BOND
     1    1    2 1    
     2    1   67 1    
     3    1   68 1    
     4    1   69 1    
     5    2    3 2    
     6    2    4 am   BACKBONE|DICT|INTERRES
     7    4    5 1    
     8    4   70 1    
     9    5    6 1    
    10    5   65 1    
    11    5   71 1    
    12    6    7 1    
    13    6   72 1    
    14    6   73 1    
    15    7    8 1    
    16    8    9 1    
    17    8   74 1    
    18    8   75 1    
    19    9   10 ar   
    20    9   14 ar   
    21   10   11 ar   
    22   10   76 1    
    23   11   12 ar   
    24   11   48 1    
    25   12   13 ar   
    26   12   77 1    
    27   13   14 ar   
    28   13   15 1    
    29   14   78 1    
    30   15   16 1    
    31   15   79 1    
    32   15   80 1    
    33   16   17 1    
    34   17   18 1    
    35   17   81 1    
    36   17   82 1    
    37   18   19 1    
    38   18   22 1    
    39   18   83 1    
    40   19   20 am   BACKBONE|DICT|INTERRES
    41   19   21 2    
    42   20   84 1    
    43   20   85 1    
    44   22   23 am   BACKBONE|DICT|INTERRES
    45   22   86 1    
    46   23   24 2    
    47   23   25 1    
    48   25   26 1    
    49   25   27 1    
    50   25   87 1    
    51   26   88 1    
    52   26   89 1    
    53   26   90 1    
    54   27   28 am   BACKBONE|DICT|INTERRES
    55   27   91 1    
    56   28   29 2    
    57   28   30 1    
    58   30   31 1    
    59   30   32 1    
    60   30   92 1    
    61   31   93 1    
    62   31   94 1    
    63   31   95 1    
    64   32   33 am   BACKBONE|DICT|INTERRES
    65   32   96 1    
    66   33   34 2    
    67   33   35 1    
    68   35   36 1    
    69   35   37 1    
    70   35   97 1    
    71   36   98 1    
    72   36   99 1    
    73   36  100 1    
    74   37   38 am   BACKBONE|DICT|INTERRES
    75   37  101 1    
    76   38   39 2    
    77   38   40 1    
    78   40   41 1    
    79   40   42 1    
    80   40  102 1    
    81   41  103 1    
    82   41  104 1    
    83   41  105 1    
    84   42   43 am   BACKBONE|DICT|INTERRES
    85   42  106 1    
    86   43   44 2    
    87   43   45 1    
    88   45   46 1    
    89   45   49 1    
    90   45  107 1    
    91   46   47 1    
    92   46  108 1    
    93   46  109 1    
    94   47   48 1    
    95   48  110 1    
    96   48  111 1    
    97   49   50 am   BACKBONE|DICT|INTERRES
    98   49  112 1    
    99   50   51 2    
   100   50   52 1    
   101   52   53 1    
   102   52   54 1    
   103   52  113 1    
   104   53  114 1    
   105   53  115 1    
   106   53  116 1    
   107   54   55 am   BACKBONE|DICT|INTERRES
   108   54  117 1    
   109   55   56 2    
   110   55   57 1    
   111   57   58 1    
   112   57   59 1    
   113   57  118 1    
   114   58  119 1    
   115   58  120 1    
   116   58  121 1    
   117   59   60 am   BACKBONE|DICT|INTERRES
   118   59  122 1    
   119   60   61 2    
   120   60   62 1    
   121   62   63 1    
   122   62   64 1    
   123   62  123 1    
   124   63  124 1    
   125   63  125 1    
   126   63  126 1    
   127   64   65 am   BACKBONE|DICT|INTERRES
   128   64  127 1    
   129   65   66 2    
@<TRIPOS>SUBSTRUCTURE
     1 UNK         1 GROUP             0       ****    0 ROOT    
