@<TRIPOS>MOLECULE
3R135
127   129    1
SMALL
USER_CHARGES


@<TRIPOS>ATOM
      1 CA        -84.7018   28.9028  -74.9468 C.3       0 UNK        -0.1998 
      2 C         -83.2277   28.5284  -74.9413 C.2       0 UNK         0.4909 
      3 O         -82.5161   28.8179  -75.9047 O.2       0 UNK        -0.5240 
      4 N         -82.7591   27.8816  -73.8667 N.am      1 UNK        -0.4739 
      5 CA        -81.3726   27.4376  -73.6834 C.3       1 UNK         0.0864 
      6 C6        -80.9972   27.3094  -72.1830 C.3       11 UNK        -0.0881 
      7 S7        -81.2450   28.8567  -71.2459 S.3       11 UNK        -0.2682 
      8 C8        -79.6707   28.9959  -70.3249 C.3       11 UNK         0.0289 
      9 C9        -78.4437   29.4371  -71.1288 C.ar      11 UNK        -0.0687 
     10 C10       -78.4929   29.7555  -72.4931 C.ar      11 UNK        -0.0823 
     11 C11       -77.3443   30.1601  -73.1783 C.ar      11 UNK        -0.0830 
     12 C12       -76.1370   30.2712  -72.4859 C.ar      11 UNK        -0.1021 
     13 C13       -76.0680   29.9662  -71.1242 C.ar      11 UNK        -0.0753 
     14 C14       -77.2220   29.5473  -70.4557 C.ar      11 UNK        -0.0933 
     15 C15       -74.7518   30.1240  -70.3737 C.3       11 UNK         0.0166 
     16 S16       -74.0905   28.5580  -69.7124 S.3       11 UNK        -0.2615 
     17 C17       -74.0250   27.4712  -71.1761 C.3       11 UNK        -0.0865 
     18 CA        -72.6873   27.5683  -71.9680 C.3       10 UNK         0.0862 
     19 C         -72.0684   26.1721  -72.2472 C.2       10 UNK         0.5551 
     20 N         -71.5621   25.5099  -71.2159 N.am      10 UNK        -0.7319 
     21 O         -72.0460   25.6772  -73.3719 O.2       10 UNK        -0.5018 
     22 N         -72.8686   28.3155  -73.2188 N.am      10 UNK        -0.4509 
     23 C         -72.4882   29.5793  -73.4348 C.2       10 UNK         0.4899 
     24 O         -71.9374   30.2886  -72.5916 O.2       10 UNK        -0.4839 
     25 CA        -72.7855   30.1441  -74.8375 C.3       9 UNK         0.0222 
     26 CB        -72.1280   31.5166  -75.0968 C.3       9 UNK        -0.1966 
     27 N         -72.4664   29.1901  -75.9040 N.am      9 UNK        -0.4218 
     28 C         -71.2632   28.6718  -76.1991 C.2       9 UNK         0.5020 
     29 O         -70.2175   28.9939  -75.6331 O.2       9 UNK        -0.5274 
     30 CA        -71.2069   27.6075  -77.3078 C.3       8 UNK         0.0270 
     31 CB        -70.6026   26.2959  -76.7753 C.3       8 UNK        -0.1976 
     32 N         -72.5315   27.3110  -77.8561 N.am      8 UNK        -0.4313 
     33 C         -72.9253   27.5309  -79.1183 C.2       8 UNK         0.5041 
     34 O         -72.2235   28.0908  -79.9623 O.2       8 UNK        -0.5577 
     35 CA        -74.3440   27.0533  -79.5062 C.3       7 UNK         0.0284 
     36 CB        -74.4154   26.5355  -80.9585 C.3       7 UNK        -0.1958 
     37 N         -74.9085   26.0722  -78.5680 N.am      7 UNK        -0.4454 
     38 C         -74.4198   24.8616  -78.2537 C.2       7 UNK         0.5089 
     39 O         -73.4885   24.3214  -78.8513 O.2       7 UNK        -0.5125 
     40 CA        -75.0467   24.1557  -77.0351 C.3       6 UNK         0.0408 
     41 CB        -73.9830   23.4322  -76.1830 C.3       6 UNK        -0.1791 
     42 N         -75.8691   25.0261  -76.1831 N.am      6 UNK        -0.4762 
     43 C         -75.4938   26.1037  -75.4718 C.2       6 UNK         0.5007 
     44 O         -74.3682   26.6073  -75.5167 O.2       6 UNK        -0.5032 
     45 CA        -76.5843   26.7300  -74.5769 C.3       5 UNK         0.0783 
     46 C46       -77.4498   27.7467  -75.3616 C.3       11 UNK        -0.0857 
     47 S47       -76.5473   29.2955  -75.7070 S.3       11 UNK        -0.2512 
     48 C48       -77.4174   30.5069  -74.6598 C.3       11 UNK         0.0225 
     49 N         -77.4030   25.6759  -73.9668 N.am      5 UNK        -0.4615 
     50 C         -77.0218   24.9501  -72.9050 C.2       4 UNK         0.5053 
     51 O         -76.0196   25.1981  -72.2383 O.2       4 UNK        -0.5105 
     52 CA        -77.8723   23.7236  -72.5294 C.3       4 UNK         0.0263 
     53 CB        -78.8311   24.0406  -71.3712 C.3       4 UNK        -0.1981 
     54 N         -78.6201   23.1886  -73.6710 N.am      4 UNK        -0.4224 
     55 C         -78.0779   22.3791  -74.5950 C.2       3 UNK         0.4895 
     56 O         -76.9316   21.9368  -74.5223 O.2       3 UNK        -0.5091 
     57 CA        -78.9332   22.0009  -75.8195 C.3       3 UNK         0.0250 
     58 CB        -79.5649   20.6133  -75.6231 C.3       3 UNK        -0.1996 
     59 N         -79.9857   22.9642  -76.1540 N.am      3 UNK        -0.4254 
     60 C         -79.7878   24.2441  -76.4969 C.2       2 UNK         0.5004 
     61 O         -78.6743   24.7675  -76.5543 O.2       2 UNK        -0.5226 
     62 CA        -81.0340   25.1109  -76.7630 C.3       2 UNK         0.0269 
     63 CB        -82.3580   24.3150  -76.8178 C.3       2 UNK        -0.1926 
     64 N         -81.1574   26.2104  -75.7973 N.am      2 UNK        -0.4687 
     65 C         -81.1285   26.1251  -74.4588 C.2       1 UNK         0.5165 
     66 O         -80.9477   25.0704  -73.8465 O.2       1 UNK        -0.5079 
     67 H67       -84.8137   29.9820  -75.0464 H         1 UNK         0.0900 
     68 H68       -85.2044   28.5928  -74.0308 H         1 UNK         0.0900 
     69 H69       -85.2058   28.4282  -75.7883 H         1 UNK         0.0900 
     70 H70       -83.3875   27.6610  -73.1071 H         1 UNK         0.2959 
     71 H71       -80.7131   28.1859  -74.1251 H         1 UNK         0.1079 
     72 H72       -81.5841   26.5258  -71.6996 H         1 UNK         0.0837 
     73 H73       -79.9513   27.0113  -72.0920 H         1 UNK         0.0837 
     74 H74       -79.4604   28.0390  -69.8446 H         1 UNK         0.0685 
     75 H75       -79.8239   29.7148  -69.5189 H         1 UNK         0.0685 
     76 H76       -79.4250   29.7073  -73.0329 H         1 UNK         0.1434 
     77 H77       -75.2533   30.6064  -73.0083 H         1 UNK         0.1329 
     78 H78       -77.1673   29.3149  -69.4007 H         1 UNK         0.1335 
     79 H79       -73.9971   30.5866  -71.0085 H         1 UNK         0.0680 
     80 H80       -74.9034   30.8131  -69.5419 H         1 UNK         0.0680 
     81 H81       -74.1913   26.4617  -70.7950 H         1 UNK         0.1032 
     82 H82       -74.8841   27.6588  -71.8185 H         1 UNK         0.1032 
     83 H83       -71.9431   28.0850  -71.3586 H         1 UNK         0.0461 
     84 H84       -71.1577   24.5998  -71.3705 H         1 UNK         0.3453 
     85 H85       -71.5750   25.9026  -70.2873 H         1 UNK         0.3453 
     86 H86       -73.2318   27.7675  -73.9915 H         1 UNK         0.2984 
     87 H87       -73.8639   30.2925  -74.8824 H         1 UNK         0.0554 
     88 H88       -72.4747   32.2569  -74.3748 H         1 UNK         0.0847 
     89 H89       -72.3742   31.8938  -76.0892 H         1 UNK         0.0847 
     90 H90       -71.0417   31.4698  -75.0149 H         1 UNK         0.0847 
     91 H91       -73.2593   28.8413  -76.4235 H         1 UNK         0.3141 
     92 H92       -70.5484   27.9968  -78.0867 H         1 UNK         0.0743 
     93 H93       -69.5967   26.4539  -76.3841 H         1 UNK         0.0784 
     94 H94       -71.2050   25.8752  -75.9692 H         1 UNK         0.0784 
     95 H95       -70.5295   25.5459  -77.5632 H         1 UNK         0.0784 
     96 H96       -73.1800   26.8570  -77.2197 H         1 UNK         0.3213 
     97 H97       -74.9827   27.9356  -79.4399 H         1 UNK         0.0855 
     98 H98       -73.7351   25.7001  -81.1257 H         1 UNK         0.0814 
     99 H99       -74.1440   27.3190  -81.6670 H         1 UNK         0.0814 
    100 H100      -75.4223   26.2055  -81.2137 H         1 UNK         0.0814 
    101 H101      -75.6856   26.3994  -78.0112 H         1 UNK         0.3105 
    102 H102      -75.7239   23.4000  -77.4354 H         1 UNK         0.0547 
    103 H103      -73.4559   22.6769  -76.7668 H         1 UNK         0.0837 
    104 H104      -73.2345   24.1245  -75.7952 H         1 UNK         0.0837 
    105 H105      -74.4367   22.9223  -75.3333 H         1 UNK         0.0837 
    106 H106      -76.8574   24.7817  -76.1598 H         1 UNK         0.3020 
    107 H107      -76.0779   27.2701  -73.7747 H         1 UNK         0.1245 
    108 H108      -78.3483   27.9854  -74.7935 H         1 UNK         0.0781 
    109 H109      -77.8048   27.3271  -76.3047 H         1 UNK         0.0781 
    110 H110      -76.9733   31.4906  -74.8186 H         1 UNK         0.0836 
    111 H111      -78.4535   30.5859  -74.9930 H         1 UNK         0.0836 
    112 H112      -78.2059   25.3684  -74.4992 H         1 UNK         0.3022 
    113 H113      -77.1812   22.9561  -72.1734 H         1 UNK         0.0747 
    114 H114      -78.2888   24.4436  -70.5146 H         1 UNK         0.0793 
    115 H115      -79.3493   23.1434  -71.0328 H         1 UNK         0.0793 
    116 H116      -79.5853   24.7723  -71.6515 H         1 UNK         0.0793 
    117 H117      -79.5644   23.5384  -73.8028 H         1 UNK         0.3047 
    118 H118      -78.2569   21.9497  -76.6756 H         1 UNK         0.0822 
    119 H119      -78.8026   19.8646  -75.4022 H         1 UNK         0.0807 
    120 H120      -80.0880   20.2833  -76.5209 H         1 UNK         0.0807 
    121 H121      -80.2765   20.6072  -74.7964 H         1 UNK         0.0807 
    122 H122      -80.9371   22.6307  -76.0972 H         1 UNK         0.2946 
    123 H123      -80.8772   25.5661  -77.7424 H         1 UNK         0.1144 
    124 H124      -82.3170   23.5246  -77.5686 H         1 UNK         0.0793 
    125 H125      -83.1890   24.9655  -77.0914 H         1 UNK         0.0793 
    126 H126      -82.6064   23.8579  -75.8590 H         1 UNK         0.0793 
    127 H127      -81.3545   27.1250  -76.1915 H         1 UNK         0.2896 
@<TRIPOS>BOND
     1    1    2 1    
     2    1   67 1    
     3    1   68 1    
     4    1   69 1    
     5    2    3 2    
     6    2    4 am   BACKBONE|DICT|INTERRES
     7    4    5 1    
     8    4   70 1    
     9    5    6 1    
    10    5   65 1    
    11    5   71 1    
    12    6    7 1    
    13    6   72 1    
    14    6   73 1    
    15    7    8 1    
    16    8    9 1    
    17    8   74 1    
    18    8   75 1    
    19    9   10 ar   
    20    9   14 ar   
    21   10   11 ar   
    22   10   76 1    
    23   11   12 ar   
    24   11   48 1    
    25   12   13 ar   
    26   12   77 1    
    27   13   14 ar   
    28   13   15 1    
    29   14   78 1    
    30   15   16 1    
    31   15   79 1    
    32   15   80 1    
    33   16   17 1    
    34   17   18 1    
    35   17   81 1    
    36   17   82 1    
    37   18   19 1    
    38   18   22 1    
    39   18   83 1    
    40   19   20 am   BACKBONE|DICT|INTERRES
    41   19   21 2    
    42   20   84 1    
    43   20   85 1    
    44   22   23 am   BACKBONE|DICT|INTERRES
    45   22   86 1    
    46   23   24 2    
    47   23   25 1    
    48   25   26 1    
    49   25   27 1    
    50   25   87 1    
    51   26   88 1    
    52   26   89 1    
    53   26   90 1    
    54   27   28 am   BACKBONE|DICT|INTERRES
    55   27   91 1    
    56   28   29 2    
    57   28   30 1    
    58   30   31 1    
    59   30   32 1    
    60   30   92 1    
    61   31   93 1    
    62   31   94 1    
    63   31   95 1    
    64   32   33 am   BACKBONE|DICT|INTERRES
    65   32   96 1    
    66   33   34 2    
    67   33   35 1    
    68   35   36 1    
    69   35   37 1    
    70   35   97 1    
    71   36   98 1    
    72   36   99 1    
    73   36  100 1    
    74   37   38 am   BACKBONE|DICT|INTERRES
    75   37  101 1    
    76   38   39 2    
    77   38   40 1    
    78   40   41 1    
    79   40   42 1    
    80   40  102 1    
    81   41  103 1    
    82   41  104 1    
    83   41  105 1    
    84   42   43 am   BACKBONE|DICT|INTERRES
    85   42  106 1    
    86   43   44 2    
    87   43   45 1    
    88   45   46 1    
    89   45   49 1    
    90   45  107 1    
    91   46   47 1    
    92   46  108 1    
    93   46  109 1    
    94   47   48 1    
    95   48  110 1    
    96   48  111 1    
    97   49   50 am   BACKBONE|DICT|INTERRES
    98   49  112 1    
    99   50   51 2    
   100   50   52 1    
   101   52   53 1    
   102   52   54 1    
   103   52  113 1    
   104   53  114 1    
   105   53  115 1    
   106   53  116 1    
   107   54   55 am   BACKBONE|DICT|INTERRES
   108   54  117 1    
   109   55   56 2    
   110   55   57 1    
   111   57   58 1    
   112   57   59 1    
   113   57  118 1    
   114   58  119 1    
   115   58  120 1    
   116   58  121 1    
   117   59   60 am   BACKBONE|DICT|INTERRES
   118   59  122 1    
   119   60   61 2    
   120   60   62 1    
   121   62   63 1    
   122   62   64 1    
   123   62  123 1    
   124   63  124 1    
   125   63  125 1    
   126   63  126 1    
   127   64   65 am   BACKBONE|DICT|INTERRES
   128   64  127 1    
   129   65   66 2    
@<TRIPOS>SUBSTRUCTURE
     1 UNK         1 GROUP             0       ****    0 ROOT    
