@<TRIPOS>MOLECULE
3R135
127   129    1
SMALL
USER_CHARGES


@<TRIPOS>ATOM
      1 CA        -84.5306   26.0268  -75.1884 C.3       0 UNK        -0.1998 
      2 C         -83.4622   27.0923  -74.9964 C.2       0 UNK         0.4909 
      3 O         -82.9437   27.6227  -75.9799 O.2       0 UNK        -0.5240 
      4 N         -83.1280   27.4107  -73.7378 N.am      1 UNK        -0.4739 
      5 CA        -82.0535   28.3399  -73.3711 C.3       1 UNK         0.0864 
      6 C6        -82.1027   28.6883  -71.8618 C.3       11 UNK        -0.0881 
      7 S7        -80.9474   30.0225  -71.3731 S.3       11 UNK        -0.2682 
      8 C8        -80.0551   29.2853  -69.9633 C.3       11 UNK         0.0289 
      9 C9        -78.9004   28.3796  -70.3807 C.ar      11 UNK        -0.0687 
     10 C10       -79.1331   27.0345  -70.6822 C.ar      11 UNK        -0.0823 
     11 C11       -78.0810   26.1714  -70.9998 C.ar      11 UNK        -0.0830 
     12 C12       -76.7733   26.6689  -70.9718 C.ar      11 UNK        -0.1021 
     13 C13       -76.5186   28.0160  -70.7038 C.ar      11 UNK        -0.0753 
     14 C14       -77.5890   28.8691  -70.4119 C.ar      11 UNK        -0.0933 
     15 C15       -75.0821   28.5333  -70.6990 C.3       11 UNK         0.0166 
     16 S16       -74.1393   28.0262  -72.1805 S.3       11 UNK        -0.2615 
     17 C17       -74.9592   29.0167  -73.4782 C.3       11 UNK        -0.0865 
     18 CA        -74.0569   29.9420  -74.3466 C.3       10 UNK         0.0862 
     19 C         -72.9725   30.7103  -73.5406 C.2       10 UNK         0.5551 
     20 N         -71.7195   30.2729  -73.5419 N.am      10 UNK        -0.7319 
     21 O         -73.2718   31.7310  -72.9255 O.2       10 UNK        -0.5018 
     22 N         -73.5139   29.2315  -75.5184 N.am      10 UNK        -0.4509 
     23 C         -73.7349   29.5903  -76.7939 C.2       10 UNK         0.4899 
     24 O         -74.4724   30.5231  -77.1164 O.2       10 UNK        -0.4839 
     25 CA        -73.0511   28.7681  -77.9106 C.3       9 UNK         0.0222 
     26 CB        -72.9055   29.5535  -79.2318 C.3       9 UNK        -0.1966 
     27 N         -71.7723   28.1713  -77.5157 N.am      9 UNK        -0.4218 
     28 C         -70.6602   28.8038  -77.1062 C.2       9 UNK         0.5020 
     29 O         -70.5151   30.0270  -77.1298 O.2       9 UNK        -0.5274 
     30 CA        -69.5347   27.9053  -76.5408 C.3       8 UNK         0.0270 
     31 CB        -68.6151   28.6561  -75.5540 C.3       8 UNK        -0.1976 
     32 N         -70.0391   26.6626  -75.9326 N.am      8 UNK        -0.4313 
     33 C         -70.9549   26.5693  -74.9569 C.2       8 UNK         0.5041 
     34 O         -71.4390   27.5414  -74.3755 O.2       8 UNK        -0.5577 
     35 CA        -71.5132   25.1671  -74.6714 C.3       7 UNK         0.0284 
     36 CB        -71.6112   24.8996  -73.1598 C.3       7 UNK        -0.1958 
     37 N         -72.8403   25.0038  -75.2733 N.am      7 UNK        -0.4454 
     38 C         -73.1248   25.0382  -76.5838 C.2       7 UNK         0.5089 
     39 O         -72.2743   25.2388  -77.4528 O.2       7 UNK        -0.5125 
     40 CA        -74.5994   24.8671  -77.0087 C.3       6 UNK         0.0408 
     41 CB        -74.7467   23.9690  -78.2535 C.3       6 UNK        -0.1791 
     42 N         -75.5082   24.4369  -75.9382 N.am      6 UNK        -0.4762 
     43 C         -75.5107   23.2726  -75.2691 C.2       6 UNK         0.5007 
     44 O         -74.7243   22.3513  -75.4873 O.2       6 UNK        -0.5032 
     45 CA        -76.5486   23.1279  -74.1447 C.3       5 UNK         0.0783 
     46 C46       -76.1368   23.9887  -72.9277 C.3       11 UNK        -0.0857 
     47 S47       -77.0422   23.5338  -71.4094 S.3       11 UNK        -0.2512 
     48 C48       -78.4233   24.7309  -71.3891 C.3       11 UNK         0.0225 
     49 N         -77.8736   23.5019  -74.6429 N.am      5 UNK        -0.4615 
     50 C         -78.8857   22.6505  -74.8510 C.2       4 UNK         0.5053 
     51 O         -78.8167   21.4394  -74.6398 O.2       4 UNK        -0.5105 
     52 CA        -80.2081   23.2390  -75.3796 C.3       4 UNK         0.0263 
     53 CB        -81.2522   23.3345  -74.2547 C.3       4 UNK        -0.1981 
     54 N         -80.0399   24.5549  -76.0028 N.am      4 UNK        -0.4224 
     55 C         -79.5102   24.7371  -77.2227 C.2       3 UNK         0.4895 
     56 O         -79.1776   23.8111  -77.9631 O.2       3 UNK        -0.5091 
     57 CA        -79.2971   26.1817  -77.7102 C.3       3 UNK         0.0250 
     58 CB        -80.4057   26.5810  -78.6974 C.3       3 UNK        -0.1996 
     59 N         -79.2277   27.1829  -76.6440 N.am      3 UNK        -0.4254 
     60 C         -78.2869   27.2450  -75.6917 C.2       2 UNK         0.5004 
     61 O         -77.3730   26.4303  -75.5674 O.2       2 UNK        -0.5226 
     62 CA        -78.4224   28.3862  -74.6734 C.3       2 UNK         0.0269 
     63 CB        -77.8061   29.6758  -75.2422 C.3       2 UNK        -0.1926 
     64 N         -79.7997   28.6672  -74.2632 N.am      2 UNK        -0.4687 
     65 C         -80.6830   27.7744  -73.7959 C.2       1 UNK         0.5165 
     66 O         -80.4605   26.5647  -73.6987 O.2       1 UNK        -0.5079 
     67 H67       -84.8745   25.6179  -74.2385 H         1 UNK         0.0900 
     68 H68       -84.1365   25.2063  -75.7876 H         1 UNK         0.0900 
     69 H69       -85.3903   26.4473  -75.7093 H         1 UNK         0.0900 
     70 H70       -83.5696   26.9238  -72.9711 H         1 UNK         0.2959 
     71 H71       -82.2283   29.2599  -73.9339 H         1 UNK         0.1079 
     72 H72       -83.1059   29.0320  -71.6045 H         1 UNK         0.0837 
     73 H73       -81.9398   27.7977  -71.2558 H         1 UNK         0.0837 
     74 H74       -79.6737   30.0968  -69.3418 H         1 UNK         0.0685 
     75 H75       -80.7548   28.7355  -69.3319 H         1 UNK         0.0685 
     76 H76       -80.1417   26.6484  -70.6707 H         1 UNK         0.1434 
     77 H77       -75.9329   26.0225  -71.1706 H         1 UNK         0.1329 
     78 H78       -77.4004   29.9088  -70.1816 H         1 UNK         0.1335 
     79 H79       -75.0565   29.6211  -70.6155 H         1 UNK         0.0680 
     80 H80       -74.5764   28.1436  -69.8148 H         1 UNK         0.0680 
     81 H81       -75.4955   28.3158  -74.1176 H         1 UNK         0.1032 
     82 H82       -75.7311   29.6271  -73.0073 H         1 UNK         0.1032 
     83 H83       -74.7235   30.7275  -74.7069 H         1 UNK         0.0461 
     84 H84       -71.0168   30.7775  -73.0274 H         1 UNK         0.3453 
     85 H85       -71.5058   29.3634  -73.9433 H         1 UNK         0.3453 
     86 H86       -72.8435   28.4987  -75.3026 H         1 UNK         0.2984 
     87 H87       -73.7188   27.9287  -78.1073 H         1 UNK         0.0554 
     88 H88       -72.4353   28.9464  -80.0054 H         1 UNK         0.0847 
     89 H89       -72.3068   30.4556  -79.1026 H         1 UNK         0.0847 
     90 H90       -73.8789   29.8630  -79.6143 H         1 UNK         0.0847 
     91 H91       -71.7712   27.1556  -77.4706 H         1 UNK         0.3141 
     92 H92       -68.9291   27.6062  -77.3975 H         1 UNK         0.0743 
     93 H93       -69.1683   29.0372  -74.6953 H         1 UNK         0.0784 
     94 H94       -67.8216   28.0088  -75.1807 H         1 UNK         0.0784 
     95 H95       -68.1353   29.5090  -76.0357 H         1 UNK         0.0784 
     96 H96       -69.7499   25.8081  -76.3906 H         1 UNK         0.3213 
     97 H97       -70.8457   24.4207  -75.1071 H         1 UNK         0.0855 
     98 H98       -72.2994   25.5894  -72.6695 H         1 UNK         0.0814 
     99 H99       -70.6386   25.0173  -72.6804 H         1 UNK         0.0814 
    100 H100      -71.9522   23.8843  -72.9566 H         1 UNK         0.0814 
    101 H101      -73.6110   24.8834  -74.6351 H         1 UNK         0.3105 
    102 H102      -74.9405   25.8647  -77.2884 H         1 UNK         0.0547 
    103 H103      -74.1984   24.3808  -79.1016 H         1 UNK         0.0837 
    104 H104      -74.3615   22.9644  -78.0775 H         1 UNK         0.0837 
    105 H105      -75.7901   23.8808  -78.5568 H         1 UNK         0.0837 
    106 H106      -76.2030   25.1416  -75.6862 H         1 UNK         0.3020 
    107 H107      -76.5380   22.0782  -73.8411 H         1 UNK         0.1245 
    108 H108      -76.2753   25.0475  -73.1524 H         1 UNK         0.0781 
    109 H109      -75.0756   23.8620  -72.7026 H         1 UNK         0.0781 
    110 H110      -79.1742   24.3490  -70.6960 H         1 UNK         0.0836 
    111 H111      -78.8953   24.7433  -72.3709 H         1 UNK         0.0836 
    112 H112      -78.0052   24.4772  -74.8796 H         1 UNK         0.3022 
    113 H113      -80.5927   22.5479  -76.1330 H         1 UNK         0.0747 
    114 H114      -82.2012   23.7222  -74.6249 H         1 UNK         0.0793 
    115 H115      -81.4495   22.3523  -73.8234 H         1 UNK         0.0793 
    116 H116      -80.9198   23.9821  -73.4439 H         1 UNK         0.0793 
    117 H117      -80.2662   25.3626  -75.4312 H         1 UNK         0.3047 
    118 H118      -78.3419   26.2015  -78.2393 H         1 UNK         0.0822 
    119 H119      -80.2172   27.5632  -79.1314 H         1 UNK         0.0807 
    120 H120      -81.3837   26.6085  -78.2144 H         1 UNK         0.0807 
    121 H121      -80.4695   25.8712  -79.5235 H         1 UNK         0.0807 
    122 H122      -79.9629   27.8759  -76.6277 H         1 UNK         0.2946 
    123 H123      -77.8735   28.0871  -73.7775 H         1 UNK         0.1144 
    124 H124      -78.4185   30.0971  -76.0404 H         1 UNK         0.0793 
    125 H125      -76.8184   29.4953  -75.6677 H         1 UNK         0.0793 
    126 H126      -77.6951   30.4370  -74.4699 H         1 UNK         0.0793 
    127 H127      -80.0745   29.6389  -74.2813 H         1 UNK         0.2896 
@<TRIPOS>BOND
     1    1    2 1    
     2    1   67 1    
     3    1   68 1    
     4    1   69 1    
     5    2    3 2    
     6    2    4 am   BACKBONE|DICT|INTERRES
     7    4    5 1    
     8    4   70 1    
     9    5    6 1    
    10    5   65 1    
    11    5   71 1    
    12    6    7 1    
    13    6   72 1    
    14    6   73 1    
    15    7    8 1    
    16    8    9 1    
    17    8   74 1    
    18    8   75 1    
    19    9   10 ar   
    20    9   14 ar   
    21   10   11 ar   
    22   10   76 1    
    23   11   12 ar   
    24   11   48 1    
    25   12   13 ar   
    26   12   77 1    
    27   13   14 ar   
    28   13   15 1    
    29   14   78 1    
    30   15   16 1    
    31   15   79 1    
    32   15   80 1    
    33   16   17 1    
    34   17   18 1    
    35   17   81 1    
    36   17   82 1    
    37   18   19 1    
    38   18   22 1    
    39   18   83 1    
    40   19   20 am   BACKBONE|DICT|INTERRES
    41   19   21 2    
    42   20   84 1    
    43   20   85 1    
    44   22   23 am   BACKBONE|DICT|INTERRES
    45   22   86 1    
    46   23   24 2    
    47   23   25 1    
    48   25   26 1    
    49   25   27 1    
    50   25   87 1    
    51   26   88 1    
    52   26   89 1    
    53   26   90 1    
    54   27   28 am   BACKBONE|DICT|INTERRES
    55   27   91 1    
    56   28   29 2    
    57   28   30 1    
    58   30   31 1    
    59   30   32 1    
    60   30   92 1    
    61   31   93 1    
    62   31   94 1    
    63   31   95 1    
    64   32   33 am   BACKBONE|DICT|INTERRES
    65   32   96 1    
    66   33   34 2    
    67   33   35 1    
    68   35   36 1    
    69   35   37 1    
    70   35   97 1    
    71   36   98 1    
    72   36   99 1    
    73   36  100 1    
    74   37   38 am   BACKBONE|DICT|INTERRES
    75   37  101 1    
    76   38   39 2    
    77   38   40 1    
    78   40   41 1    
    79   40   42 1    
    80   40  102 1    
    81   41  103 1    
    82   41  104 1    
    83   41  105 1    
    84   42   43 am   BACKBONE|DICT|INTERRES
    85   42  106 1    
    86   43   44 2    
    87   43   45 1    
    88   45   46 1    
    89   45   49 1    
    90   45  107 1    
    91   46   47 1    
    92   46  108 1    
    93   46  109 1    
    94   47   48 1    
    95   48  110 1    
    96   48  111 1    
    97   49   50 am   BACKBONE|DICT|INTERRES
    98   49  112 1    
    99   50   51 2    
   100   50   52 1    
   101   52   53 1    
   102   52   54 1    
   103   52  113 1    
   104   53  114 1    
   105   53  115 1    
   106   53  116 1    
   107   54   55 am   BACKBONE|DICT|INTERRES
   108   54  117 1    
   109   55   56 2    
   110   55   57 1    
   111   57   58 1    
   112   57   59 1    
   113   57  118 1    
   114   58  119 1    
   115   58  120 1    
   116   58  121 1    
   117   59   60 am   BACKBONE|DICT|INTERRES
   118   59  122 1    
   119   60   61 2    
   120   60   62 1    
   121   62   63 1    
   122   62   64 1    
   123   62  123 1    
   124   63  124 1    
   125   63  125 1    
   126   63  126 1    
   127   64   65 am   BACKBONE|DICT|INTERRES
   128   64  127 1    
   129   65   66 2    
@<TRIPOS>SUBSTRUCTURE
     1 UNK         1 GROUP             0       ****    0 ROOT    
