@<TRIPOS>MOLECULE
3R135
127   129    1
SMALL
USER_CHARGES


@<TRIPOS>ATOM
      1 CA        -83.6483   24.1137  -74.1447 C.3       0 UNK        -0.1998 
      2 C         -83.0187   25.4255  -74.5896 C.2       0 UNK         0.4909 
      3 O         -83.3595   25.9371  -75.6563 O.2       0 UNK        -0.5240 
      4 N         -82.1126   25.9792  -73.7745 N.am      1 UNK        -0.4739 
      5 CA        -81.3680   27.2038  -74.0728 C.3       1 UNK         0.0864 
      6 C6        -80.8334   27.8570  -72.7772 C.3       11 UNK        -0.0881 
      7 S7        -80.5604   29.6540  -72.9474 S.3       11 UNK        -0.2682 
      8 C8        -80.1327   30.1176  -71.2350 C.3       11 UNK         0.0289 
      9 C9        -78.7687   29.5711  -70.8424 C.ar      11 UNK        -0.0687 
     10 C10       -78.6593   28.2869  -70.3063 C.ar      11 UNK        -0.0823 
     11 C11       -77.4064   27.7151  -70.0689 C.ar      11 UNK        -0.0830 
     12 C12       -76.2553   28.4795  -70.2920 C.ar      11 UNK        -0.1021 
     13 C13       -76.3528   29.7914  -70.7698 C.ar      11 UNK        -0.0753 
     14 C14       -77.6135   30.3285  -71.0505 C.ar      11 UNK        -0.0933 
     15 C15       -75.1005   30.6312  -70.9797 C.3       11 UNK         0.0166 
     16 S16       -74.8872   31.1173  -72.7204 S.3       11 UNK        -0.2615 
     17 C17       -73.3513   32.1056  -72.6105 C.3       11 UNK        -0.0865 
     18 CA        -72.1529   31.4789  -73.3693 C.3       10 UNK         0.0862 
     19 C         -71.6137   30.1999  -72.6611 C.2       10 UNK         0.5551 
     20 N         -71.6646   29.0222  -73.2720 N.am      10 UNK        -0.7319 
     21 O         -71.1302   30.2855  -71.5351 O.2       10 UNK        -0.5018 
     22 N         -72.4600   31.3217  -74.7975 N.am      10 UNK        -0.4509 
     23 C         -71.5557   31.1966  -75.7735 C.2       10 UNK         0.4899 
     24 O         -70.3372   31.2846  -75.6113 O.2       10 UNK        -0.4839 
     25 CA        -72.1198   30.8971  -77.1736 C.3       9 UNK         0.0222 
     26 CB        -71.6038   31.9122  -78.2078 C.3       9 UNK        -0.1966 
     27 N         -71.7993   29.5383  -77.6205 N.am      9 UNK        -0.4218 
     28 C         -72.1217   28.4127  -76.9697 C.2       9 UNK         0.5020 
     29 O         -72.7288   28.3837  -75.8928 O.2       9 UNK        -0.5274 
     30 CA        -71.6880   27.0953  -77.6244 C.3       8 UNK         0.0270 
     31 CB        -70.1830   26.8426  -77.4306 C.3       8 UNK        -0.1976 
     32 N         -72.4437   26.0332  -76.9764 N.am      8 UNK        -0.4313 
     33 C         -73.0388   24.9928  -77.5637 C.2       8 UNK         0.5041 
     34 O         -72.8939   24.6947  -78.7498 O.2       8 UNK        -0.5577 
     35 CA        -73.9676   24.1450  -76.6741 C.3       7 UNK         0.0284 
     36 CB        -73.2699   22.8439  -76.2474 C.3       7 UNK        -0.1958 
     37 N         -74.4344   24.8520  -75.4759 N.am      7 UNK        -0.4454 
     38 C         -75.2990   25.8754  -75.4647 C.2       7 UNK         0.5089 
     39 O         -75.8475   26.3209  -76.4748 O.2       7 UNK        -0.5125 
     40 CA        -75.6301   26.4474  -74.0763 C.3       6 UNK         0.0408 
     41 CB        -76.4099   27.7715  -74.1407 C.3       6 UNK        -0.1791 
     42 N         -76.4011   25.4568  -73.3269 N.am      6 UNK        -0.4762 
     43 C         -75.8667   24.4563  -72.6093 C.2       6 UNK         0.5007 
     44 O         -74.6568   24.3363  -72.4101 O.2       6 UNK        -0.5032 
     45 CA        -76.8312   23.3668  -72.0918 C.3       5 UNK         0.0783 
     46 C46       -77.3394   23.6433  -70.6545 C.3       11 UNK        -0.0857 
     47 S47       -78.3854   25.1328  -70.5062 S.3       11 UNK        -0.2512 
     48 C48       -77.2907   26.2737  -69.5837 C.3       11 UNK         0.0225 
     49 N         -77.9229   23.1082  -73.0388 N.am      5 UNK        -0.4615 
     50 C         -77.7529   22.5145  -74.2288 C.2       4 UNK         0.5053 
     51 O         -76.6709   22.0681  -74.6117 O.2       4 UNK        -0.5105 
     52 CA        -78.9676   22.4088  -75.1632 C.3       4 UNK         0.0263 
     53 CB        -80.3196   22.7143  -74.4893 C.3       4 UNK        -0.1981 
     54 N         -78.7468   23.3289  -76.2785 N.am      4 UNK        -0.4224 
     55 C         -78.2883   22.9664  -77.4865 C.2       3 UNK         0.4895 
     56 O         -78.1550   21.7922  -77.8358 O.2       3 UNK        -0.5091 
     57 CA        -77.8579   24.0743  -78.4706 C.3       3 UNK         0.0250 
     58 CB        -78.4286   23.8574  -79.8889 C.3       3 UNK        -0.1996 
     59 N         -78.0841   25.4417  -77.9861 N.am      3 UNK        -0.4254 
     60 C         -79.2490   26.0915  -77.8711 C.2       2 UNK         0.5004 
     61 O         -80.3417   25.6405  -78.2201 O.2       2 UNK        -0.5226 
     62 CA        -79.1774   27.4905  -77.2362 C.3       2 UNK         0.0269 
     63 CB        -79.3963   28.5815  -78.2966 C.3       2 UNK        -0.1926 
     64 N         -80.1597   27.6541  -76.1620 N.am      2 UNK        -0.4687 
     65 C         -80.2256   26.8932  -75.0608 C.2       1 UNK         0.5165 
     66 O         -79.4202   25.9926  -74.7978 O.2       1 UNK        -0.5079 
     67 H67       -83.1783   23.7202  -73.2435 H         1 UNK         0.0900 
     68 H68       -83.5525   23.3652  -74.9305 H         1 UNK         0.0900 
     69 H69       -84.7088   24.2578  -73.9404 H         1 UNK         0.0900 
     70 H70       -81.8541   25.5060  -72.9209 H         1 UNK         0.2959 
     71 H71       -82.0643   27.9014  -74.5447 H         1 UNK         0.1079 
     72 H72       -79.9130   27.3676  -72.4557 H         1 UNK         0.0837 
     73 H73       -81.5499   27.7198  -71.9655 H         1 UNK         0.0837 
     74 H74       -80.1361   31.2054  -71.1520 H         1 UNK         0.0685 
     75 H75       -80.9019   29.7560  -70.5509 H         1 UNK         0.0685 
     76 H76       -79.5542   27.7073  -70.1273 H         1 UNK         0.1434 
     77 H77       -75.2809   28.0524  -70.0973 H         1 UNK         0.1329 
     78 H78       -77.6915   31.3295  -71.4527 H         1 UNK         0.1335 
     79 H79       -74.2121   30.0886  -70.6530 H         1 UNK         0.0680 
     80 H80       -75.1667   31.5260  -70.3595 H         1 UNK         0.0680 
     81 H81       -73.0899   32.2848  -71.5658 H         1 UNK         0.1032 
     82 H82       -73.5627   33.0930  -73.0236 H         1 UNK         0.1032 
     83 H83       -71.3370   32.2016  -73.3061 H         1 UNK         0.0461 
     84 H84       -72.0772   28.9332  -74.1962 H         1 UNK         0.3453 
     85 H85       -71.3070   28.2080  -72.8006 H         1 UNK         0.3453 
     86 H86       -73.4360   31.1783  -75.0138 H         1 UNK         0.2984 
     87 H87       -73.2082   30.9805  -77.1390 H         1 UNK         0.0554 
     88 H88       -72.0654   31.7574  -79.1831 H         1 UNK         0.0847 
     89 H89       -70.5221   31.8488  -78.3335 H         1 UNK         0.0847 
     90 H90       -71.8354   32.9329  -77.9003 H         1 UNK         0.0847 
     91 H91       -71.2751   29.4623  -78.4803 H         1 UNK         0.3141 
     92 H92       -71.9292   27.1363  -78.6887 H         1 UNK         0.0743 
     93 H93       -69.9084   26.8343  -76.3749 H         1 UNK         0.0784 
     94 H94       -69.8858   25.8858  -77.8602 H         1 UNK         0.0784 
     95 H95       -69.5868   27.6150  -77.9178 H         1 UNK         0.0784 
     96 H96       -72.7015   26.2524  -76.0221 H         1 UNK         0.3213 
     97 H97       -74.8413   23.8813  -77.2711 H         1 UNK         0.0855 
     98 H98       -72.3920   23.0391  -75.6303 H         1 UNK         0.0814 
     99 H99       -72.9379   22.2757  -77.1175 H         1 UNK         0.0814 
    100 H100      -73.9446   22.2010  -75.6810 H         1 UNK         0.0814 
    101 H101      -74.0883   24.5219  -74.5827 H         1 UNK         0.3105 
    102 H102      -74.6875   26.6515  -73.5637 H         1 UNK         0.0547 
    103 H103      -75.8475   28.5266  -74.6915 H         1 UNK         0.0837 
    104 H104      -77.3735   27.6573  -74.6307 H         1 UNK         0.0837 
    105 H105      -76.5950   28.1698  -73.1445 H         1 UNK         0.0837 
    106 H106      -77.4024   25.4642  -73.4751 H         1 UNK         0.3020 
    107 H107      -76.2385   22.4500  -72.0386 H         1 UNK         0.1245 
    108 H108      -76.4996   23.6996  -69.9601 H         1 UNK         0.0781 
    109 H109      -77.9314   22.7925  -70.3136 H         1 UNK         0.0781 
    110 H110      -76.2554   25.9426  -69.6748 H         1 UNK         0.0836 
    111 H111      -77.5389   26.2289  -68.5225 H         1 UNK         0.0836 
    112 H112      -78.8331   23.4642  -72.7860 H         1 UNK         0.3022 
    113 H113      -79.0065   21.3770  -75.5183 H         1 UNK         0.0747 
    114 H114      -81.1368   22.6067  -75.2023 H         1 UNK         0.0793 
    115 H115      -80.5157   22.0199  -73.6713 H         1 UNK         0.0793 
    116 H116      -80.3679   23.7238  -74.0860 H         1 UNK         0.0793 
    117 H117      -78.8223   24.3157  -76.0585 H         1 UNK         0.3047 
    118 H118      -76.7751   23.9819  -78.5536 H         1 UNK         0.0822 
    119 H119      -78.1148   24.6484  -80.5699 H         1 UNK         0.0807 
    120 H120      -79.5181   23.8224  -79.8907 H         1 UNK         0.0807 
    121 H121      -78.0787   22.9134  -80.3085 H         1 UNK         0.0807 
    122 H122      -77.2536   25.8905  -77.6001 H         1 UNK         0.2946 
    123 H123      -78.1858   27.6330  -76.8039 H         1 UNK         0.1144 
    124 H124      -79.2920   29.5789  -77.8691 H         1 UNK         0.0793 
    125 H125      -80.3859   28.5104  -78.7501 H         1 UNK         0.0793 
    126 H126      -78.6630   28.4960  -79.0997 H         1 UNK         0.0793 
    127 H127      -80.8682   28.3583  -76.3077 H         1 UNK         0.2896 
@<TRIPOS>BOND
     1    1    2 1    
     2    1   67 1    
     3    1   68 1    
     4    1   69 1    
     5    2    3 2    
     6    2    4 am   BACKBONE|DICT|INTERRES
     7    4    5 1    
     8    4   70 1    
     9    5    6 1    
    10    5   65 1    
    11    5   71 1    
    12    6    7 1    
    13    6   72 1    
    14    6   73 1    
    15    7    8 1    
    16    8    9 1    
    17    8   74 1    
    18    8   75 1    
    19    9   10 ar   
    20    9   14 ar   
    21   10   11 ar   
    22   10   76 1    
    23   11   12 ar   
    24   11   48 1    
    25   12   13 ar   
    26   12   77 1    
    27   13   14 ar   
    28   13   15 1    
    29   14   78 1    
    30   15   16 1    
    31   15   79 1    
    32   15   80 1    
    33   16   17 1    
    34   17   18 1    
    35   17   81 1    
    36   17   82 1    
    37   18   19 1    
    38   18   22 1    
    39   18   83 1    
    40   19   20 am   BACKBONE|DICT|INTERRES
    41   19   21 2    
    42   20   84 1    
    43   20   85 1    
    44   22   23 am   BACKBONE|DICT|INTERRES
    45   22   86 1    
    46   23   24 2    
    47   23   25 1    
    48   25   26 1    
    49   25   27 1    
    50   25   87 1    
    51   26   88 1    
    52   26   89 1    
    53   26   90 1    
    54   27   28 am   BACKBONE|DICT|INTERRES
    55   27   91 1    
    56   28   29 2    
    57   28   30 1    
    58   30   31 1    
    59   30   32 1    
    60   30   92 1    
    61   31   93 1    
    62   31   94 1    
    63   31   95 1    
    64   32   33 am   BACKBONE|DICT|INTERRES
    65   32   96 1    
    66   33   34 2    
    67   33   35 1    
    68   35   36 1    
    69   35   37 1    
    70   35   97 1    
    71   36   98 1    
    72   36   99 1    
    73   36  100 1    
    74   37   38 am   BACKBONE|DICT|INTERRES
    75   37  101 1    
    76   38   39 2    
    77   38   40 1    
    78   40   41 1    
    79   40   42 1    
    80   40  102 1    
    81   41  103 1    
    82   41  104 1    
    83   41  105 1    
    84   42   43 am   BACKBONE|DICT|INTERRES
    85   42  106 1    
    86   43   44 2    
    87   43   45 1    
    88   45   46 1    
    89   45   49 1    
    90   45  107 1    
    91   46   47 1    
    92   46  108 1    
    93   46  109 1    
    94   47   48 1    
    95   48  110 1    
    96   48  111 1    
    97   49   50 am   BACKBONE|DICT|INTERRES
    98   49  112 1    
    99   50   51 2    
   100   50   52 1    
   101   52   53 1    
   102   52   54 1    
   103   52  113 1    
   104   53  114 1    
   105   53  115 1    
   106   53  116 1    
   107   54   55 am   BACKBONE|DICT|INTERRES
   108   54  117 1    
   109   55   56 2    
   110   55   57 1    
   111   57   58 1    
   112   57   59 1    
   113   57  118 1    
   114   58  119 1    
   115   58  120 1    
   116   58  121 1    
   117   59   60 am   BACKBONE|DICT|INTERRES
   118   59  122 1    
   119   60   61 2    
   120   60   62 1    
   121   62   63 1    
   122   62   64 1    
   123   62  123 1    
   124   63  124 1    
   125   63  125 1    
   126   63  126 1    
   127   64   65 am   BACKBONE|DICT|INTERRES
   128   64  127 1    
   129   65   66 2    
@<TRIPOS>SUBSTRUCTURE
     1 UNK         1 GROUP             0       ****    0 ROOT    
