@<TRIPOS>MOLECULE
3R135
127   129    1
SMALL
USER_CHARGES


@<TRIPOS>ATOM
      1 CA        -80.0989   30.3204  -76.3211 C.3       0 UNK        -0.1998 
      2 C         -80.0679   29.2400  -75.2513 C.2       0 UNK         0.4909 
      3 O         -79.1357   28.4386  -75.2208 O.2       0 UNK        -0.5240 
      4 N         -81.0804   29.2081  -74.3760 N.am      1 UNK        -0.4739 
      5 CA        -81.2262   28.2375  -73.2851 C.3       1 UNK         0.0864 
      6 C6        -82.0627   28.8108  -72.1104 C.3       11 UNK        -0.0881 
      7 S7        -81.3679   30.3460  -71.4055 S.3       11 UNK        -0.2682 
      8 C8        -80.6761   29.7702  -69.8226 C.3       11 UNK         0.0289 
      9 C9        -79.2960   29.1555  -70.0002 C.ar      11 UNK        -0.0687 
     10 C10       -79.1473   27.7739  -70.1590 C.ar      11 UNK        -0.0823 
     11 C11       -77.8767   27.2115  -70.3205 C.ar      11 UNK        -0.0830 
     12 C12       -76.7510   28.0406  -70.3060 C.ar      11 UNK        -0.1021 
     13 C13       -76.8862   29.4207  -70.1322 C.ar      11 UNK        -0.0753 
     14 C14       -78.1613   29.9736  -69.9854 C.ar      11 UNK        -0.0933 
     15 C15       -75.6500   30.3049  -70.0815 C.3       11 UNK         0.0166 
     16 S16       -75.2649   31.0019  -71.7162 S.3       11 UNK        -0.2615 
     17 C17       -73.4797   31.3436  -71.5207 C.3       11 UNK        -0.0865 
     18 CA        -72.7593   31.6600  -72.8594 C.3       10 UNK         0.0862 
     19 C         -71.2406   31.8756  -72.6068 C.2       10 UNK         0.5551 
     20 N         -70.7892   33.1216  -72.5598 N.am      10 UNK        -0.7319 
     21 O         -70.4854   30.9283  -72.3990 O.2       10 UNK        -0.5018 
     22 N         -73.0683   30.6401  -73.8731 N.am      10 UNK        -0.4509 
     23 C         -72.5665   30.5297  -75.1081 C.2       10 UNK         0.4899 
     24 O         -71.6884   31.2525  -75.5832 O.2       10 UNK        -0.4839 
     25 CA        -73.2170   29.4474  -75.9883 C.3       9 UNK         0.0222 
     26 CB        -73.7017   30.0581  -77.3161 C.3       9 UNK        -0.1966 
     27 N         -72.3505   28.3001  -76.2707 N.am      9 UNK        -0.4218 
     28 C         -71.7212   27.5302  -75.3687 C.2       9 UNK         0.5020 
     29 O         -71.7051   27.7446  -74.1556 O.2       9 UNK        -0.5274 
     30 CA        -71.0741   26.2548  -75.9280 C.3       8 UNK         0.0270 
     31 CB        -70.3589   25.4058  -74.8587 C.3       8 UNK        -0.1976 
     32 N         -72.1267   25.4658  -76.5629 N.am      8 UNK        -0.4313 
     33 C         -71.9955   24.7500  -77.6870 C.2       8 UNK         0.5041 
     34 O         -70.9219   24.5857  -78.2684 O.2       8 UNK        -0.5577 
     35 CA        -73.2736   24.1269  -78.2883 C.3       7 UNK         0.0284 
     36 CB        -73.3853   22.6452  -77.8951 C.3       7 UNK        -0.1958 
     37 N         -74.5101   24.8153  -77.9059 N.am      7 UNK        -0.4454 
     38 C         -74.7991   26.0985  -78.1642 C.2       7 UNK         0.5089 
     39 O         -74.0951   26.8293  -78.8612 O.2       7 UNK        -0.5125 
     40 CA        -76.0535   26.6856  -77.4918 C.3       6 UNK         0.0408 
     41 CB        -77.2188   26.7509  -78.4896 C.3       6 UNK        -0.1791 
     42 N         -76.4926   25.9730  -76.2881 N.am      6 UNK        -0.4762 
     43 C         -75.7808   25.7901  -75.1650 C.2       6 UNK         0.5007 
     44 O         -74.6133   26.1507  -75.0268 O.2       6 UNK        -0.5032 
     45 CA        -76.4836   25.0241  -74.0312 C.3       5 UNK         0.0783 
     46 C46       -77.5089   25.9388  -73.3172 C.3       11 UNK        -0.0857 
     47 S47       -78.4764   25.0889  -72.0246 S.3       11 UNK        -0.2512 
     48 C48       -77.7122   25.7067  -70.4919 C.3       11 UNK         0.0225 
     49 N         -77.0811   23.7992  -74.5674 N.am      5 UNK        -0.4615 
     50 C         -76.3970   22.6820  -74.8467 C.2       4 UNK         0.5053 
     51 O         -75.1968   22.5413  -74.6148 O.2       4 UNK        -0.5105 
     52 CA        -77.1739   21.5252  -75.5009 C.3       4 UNK         0.0263 
     53 CB        -77.6902   20.5542  -74.4270 C.3       4 UNK        -0.1981 
     54 N         -78.2986   21.9771  -76.3235 N.am      4 UNK        -0.4224 
     55 C         -78.1792   22.6323  -77.4875 C.2       3 UNK         0.4895 
     56 O         -77.1020   22.8777  -78.0307 O.2       3 UNK        -0.5091 
     57 CA        -79.4867   23.1421  -78.1249 C.3       3 UNK         0.0250 
     58 CB        -80.1145   22.0558  -79.0126 C.3       3 UNK        -0.1996 
     59 N         -80.4765   23.6122  -77.1439 N.am      3 UNK        -0.4254 
     60 C         -80.2571   24.6083  -76.2747 C.2       2 UNK         0.5004 
     61 O         -79.1959   25.2324  -76.2176 O.2       2 UNK        -0.5226 
     62 CA        -81.3663   24.9211  -75.2644 C.3       2 UNK         0.0269 
     63 CB        -81.4866   23.7865  -74.2259 C.3       2 UNK        -0.1926 
     64 N         -81.0312   26.1837  -74.6077 N.am      2 UNK        -0.4687 
     65 C         -81.8270   26.9228  -73.8310 C.2       1 UNK         0.5165 
     66 O         -82.9948   26.6207  -73.5760 O.2       1 UNK        -0.5079 
     67 H67       -80.1015   29.8657  -77.3114 H         1 UNK         0.0900 
     68 H68       -79.2154   30.9529  -76.2387 H         1 UNK         0.0900 
     69 H69       -80.9808   30.9549  -76.2352 H         1 UNK         0.0900 
     70 H70       -81.8244   29.8868  -74.4522 H         1 UNK         0.2959 
     71 H71       -80.2341   27.9982  -72.8936 H         1 UNK         0.1079 
     72 H72       -83.0786   29.0357  -72.4411 H         1 UNK         0.0837 
     73 H73       -82.1669   28.0651  -71.3204 H         1 UNK         0.0837 
     74 H74       -80.6082   30.6227  -69.1450 H         1 UNK         0.0685 
     75 H75       -81.3578   29.0644  -69.3456 H         1 UNK         0.0685 
     76 H76       -80.0191   27.1341  -70.1642 H         1 UNK         0.1434 
     77 H77       -75.7648   27.6123  -70.4238 H         1 UNK         0.1329 
     78 H78       -78.2703   31.0420  -69.8573 H         1 UNK         0.1335 
     79 H79       -75.7954   31.1183  -69.3689 H         1 UNK         0.0680 
     80 H80       -74.8026   29.7243  -69.7136 H         1 UNK         0.0680 
     81 H81       -73.0124   30.4780  -71.0462 H         1 UNK         0.1032 
     82 H82       -73.3641   32.1743  -70.8217 H         1 UNK         0.1032 
     83 H83       -73.1727   32.5938  -73.2454 H         1 UNK         0.0461 
     84 H84       -69.8106   33.2819  -72.3783 H         1 UNK         0.3453 
     85 H85       -71.4038   33.9055  -72.7164 H         1 UNK         0.3453 
     86 H86       -73.7681   29.9707  -73.5878 H         1 UNK         0.2984 
     87 H87       -74.0939   29.0561  -75.4677 H         1 UNK         0.0554 
     88 H88       -74.2612   29.3404  -77.9136 H         1 UNK         0.0847 
     89 H89       -72.8692   30.4169  -77.9227 H         1 UNK         0.0847 
     90 H90       -74.3617   30.9078  -77.1362 H         1 UNK         0.0847 
     91 H91       -72.3068   28.0130  -77.2387 H         1 UNK         0.3141 
     92 H92       -70.3394   26.5685  -76.6728 H         1 UNK         0.0743 
     93 H93       -71.0523   25.0598  -74.0910 H         1 UNK         0.0784 
     94 H94       -69.8852   24.5296  -75.3014 H         1 UNK         0.0784 
     95 H95       -69.5774   25.9816  -74.3613 H         1 UNK         0.0784 
     96 H96       -73.0510   25.5728  -76.1494 H         1 UNK         0.3213 
     97 H97       -73.1862   24.1905  -79.3749 H         1 UNK         0.0855 
     98 H98       -73.4810   22.5216  -76.8157 H         1 UNK         0.0814 
     99 H99       -72.5006   22.0900  -78.2099 H         1 UNK         0.0814 
    100 H100      -74.2486   22.1727  -78.3646 H         1 UNK         0.0814 
    101 H101      -75.1841   24.2832  -77.3714 H         1 UNK         0.3105 
    102 H102      -75.8126   27.7041  -77.1841 H         1 UNK         0.0547 
    103 H103      -76.9447   27.3246  -79.3759 H         1 UNK         0.0837 
    104 H104      -77.5162   25.7559  -78.8216 H         1 UNK         0.0837 
    105 H105      -78.0919   27.2322  -78.0476 H         1 UNK         0.0837 
    106 H106      -77.4615   25.6531  -76.2929 H         1 UNK         0.3020 
    107 H107      -75.7200   24.7451  -73.3010 H         1 UNK         0.1245 
    108 H108      -78.2246   26.3396  -74.0327 H         1 UNK         0.0781 
    109 H109      -77.0052   26.8084  -72.8930 H         1 UNK         0.0781 
    110 H110      -76.6586   25.4230  -70.4829 H         1 UNK         0.0836 
    111 H111      -78.1711   25.2006  -69.6416 H         1 UNK         0.0836 
    112 H112      -78.0542   23.8616  -74.8298 H         1 UNK         0.3022 
    113 H113      -76.4775   20.9853  -76.1465 H         1 UNK         0.0747 
    114 H114      -78.1795   19.6892  -74.8753 H         1 UNK         0.0793 
    115 H115      -76.8691   20.1784  -73.8148 H         1 UNK         0.0793 
    116 H116      -78.4031   21.0350  -73.7556 H         1 UNK         0.0793 
    117 H117      -79.2258   21.8130  -75.9600 H         1 UNK         0.3047 
    118 H118      -79.2278   23.9913  -78.7605 H         1 UNK         0.0822 
    119 H119      -80.9844   22.4351  -79.5492 H         1 UNK         0.0807 
    120 H120      -80.4294   21.1882  -78.4313 H         1 UNK         0.0807 
    121 H121      -79.4027   21.7053  -79.7616 H         1 UNK         0.0807 
    122 H122      -81.3687   23.1383  -77.1345 H         1 UNK         0.2946 
    123 H123      -82.3084   25.0408  -75.8036 H         1 UNK         0.1144 
    124 H124      -80.5520   23.6347  -73.6851 H         1 UNK         0.0793 
    125 H125      -81.7465   22.8398  -74.7004 H         1 UNK         0.0793 
    126 H126      -82.2641   23.9936  -73.4908 H         1 UNK         0.0793 
    127 H127      -80.1140   26.5479  -74.8555 H         1 UNK         0.2896 
@<TRIPOS>BOND
     1    1    2 1    
     2    1   67 1    
     3    1   68 1    
     4    1   69 1    
     5    2    3 2    
     6    2    4 am   BACKBONE|DICT|INTERRES
     7    4    5 1    
     8    4   70 1    
     9    5    6 1    
    10    5   65 1    
    11    5   71 1    
    12    6    7 1    
    13    6   72 1    
    14    6   73 1    
    15    7    8 1    
    16    8    9 1    
    17    8   74 1    
    18    8   75 1    
    19    9   10 ar   
    20    9   14 ar   
    21   10   11 ar   
    22   10   76 1    
    23   11   12 ar   
    24   11   48 1    
    25   12   13 ar   
    26   12   77 1    
    27   13   14 ar   
    28   13   15 1    
    29   14   78 1    
    30   15   16 1    
    31   15   79 1    
    32   15   80 1    
    33   16   17 1    
    34   17   18 1    
    35   17   81 1    
    36   17   82 1    
    37   18   19 1    
    38   18   22 1    
    39   18   83 1    
    40   19   20 am   BACKBONE|DICT|INTERRES
    41   19   21 2    
    42   20   84 1    
    43   20   85 1    
    44   22   23 am   BACKBONE|DICT|INTERRES
    45   22   86 1    
    46   23   24 2    
    47   23   25 1    
    48   25   26 1    
    49   25   27 1    
    50   25   87 1    
    51   26   88 1    
    52   26   89 1    
    53   26   90 1    
    54   27   28 am   BACKBONE|DICT|INTERRES
    55   27   91 1    
    56   28   29 2    
    57   28   30 1    
    58   30   31 1    
    59   30   32 1    
    60   30   92 1    
    61   31   93 1    
    62   31   94 1    
    63   31   95 1    
    64   32   33 am   BACKBONE|DICT|INTERRES
    65   32   96 1    
    66   33   34 2    
    67   33   35 1    
    68   35   36 1    
    69   35   37 1    
    70   35   97 1    
    71   36   98 1    
    72   36   99 1    
    73   36  100 1    
    74   37   38 am   BACKBONE|DICT|INTERRES
    75   37  101 1    
    76   38   39 2    
    77   38   40 1    
    78   40   41 1    
    79   40   42 1    
    80   40  102 1    
    81   41  103 1    
    82   41  104 1    
    83   41  105 1    
    84   42   43 am   BACKBONE|DICT|INTERRES
    85   42  106 1    
    86   43   44 2    
    87   43   45 1    
    88   45   46 1    
    89   45   49 1    
    90   45  107 1    
    91   46   47 1    
    92   46  108 1    
    93   46  109 1    
    94   47   48 1    
    95   48  110 1    
    96   48  111 1    
    97   49   50 am   BACKBONE|DICT|INTERRES
    98   49  112 1    
    99   50   51 2    
   100   50   52 1    
   101   52   53 1    
   102   52   54 1    
   103   52  113 1    
   104   53  114 1    
   105   53  115 1    
   106   53  116 1    
   107   54   55 am   BACKBONE|DICT|INTERRES
   108   54  117 1    
   109   55   56 2    
   110   55   57 1    
   111   57   58 1    
   112   57   59 1    
   113   57  118 1    
   114   58  119 1    
   115   58  120 1    
   116   58  121 1    
   117   59   60 am   BACKBONE|DICT|INTERRES
   118   59  122 1    
   119   60   61 2    
   120   60   62 1    
   121   62   63 1    
   122   62   64 1    
   123   62  123 1    
   124   63  124 1    
   125   63  125 1    
   126   63  126 1    
   127   64   65 am   BACKBONE|DICT|INTERRES
   128   64  127 1    
   129   65   66 2    
@<TRIPOS>SUBSTRUCTURE
     1 UNK         1 GROUP             0       ****    0 ROOT    
