@<TRIPOS>MOLECULE
3R135
127   129    1
SMALL
USER_CHARGES


@<TRIPOS>ATOM
      1 CA        -83.6275   25.9943  -72.2838 C.3       0 UNK        -0.1998 
      2 C         -82.1999   26.4265  -71.9615 C.2       0 UNK         0.4909 
      3 O         -81.5802   25.8431  -71.0755 O.2       0 UNK        -0.5240 
      4 N         -81.6351   27.4339  -72.6422 N.am      1 UNK        -0.4739 
      5 CA        -82.2550   28.2500  -73.6998 C.3       1 UNK         0.0864 
      6 C6        -81.7591   29.7192  -73.6724 C.3       11 UNK        -0.0881 
      7 S7        -82.0584   30.4977  -72.0429 S.3       11 UNK        -0.2682 
      8 C8        -80.4711   31.3166  -71.6592 C.3       11 UNK         0.0289 
      9 C9        -79.2494   30.4180  -71.8240 C.ar      11 UNK        -0.0687 
     10 C10       -79.2076   29.1393  -71.2549 C.ar      11 UNK        -0.0823 
     11 C11       -78.1037   28.3039  -71.4582 C.ar      11 UNK        -0.0830 
     12 C12       -77.0231   28.7810  -72.2035 C.ar      11 UNK        -0.1021 
     13 C13       -77.0286   30.0691  -72.7394 C.ar      11 UNK        -0.0753 
     14 C14       -78.1505   30.8796  -72.5555 C.ar      11 UNK        -0.0933 
     15 C15       -75.8287   30.5813  -73.5227 C.3       11 UNK         0.0166 
     16 S16       -74.6124   31.4020  -72.4407 S.3       11 UNK        -0.2615 
     17 C17       -73.7005   29.9810  -71.7360 C.3       11 UNK        -0.0865 
     18 CA        -72.3461   29.7147  -72.4411 C.3       10 UNK         0.0862 
     19 C         -71.6130   28.5203  -71.7825 C.2       10 UNK         0.5551 
     20 N         -70.6074   28.7839  -70.9600 N.am      10 UNK        -0.7319 
     21 O         -71.9738   27.3612  -71.9777 O.2       10 UNK        -0.5018 
     22 N         -72.5281   29.4470  -73.8714 N.am      10 UNK        -0.4509 
     23 C         -71.9887   30.1628  -74.8641 C.2       10 UNK         0.4899 
     24 O         -71.2741   31.1526  -74.6933 O.2       10 UNK        -0.4839 
     25 CA        -72.3131   29.6869  -76.2917 C.3       9 UNK         0.0222 
     26 CB        -71.5007   30.4192  -77.3809 C.3       9 UNK        -0.1966 
     27 N         -72.1963   28.2334  -76.4397 N.am      9 UNK        -0.4218 
     28 C         -71.1038   27.4743  -76.2580 C.2       9 UNK         0.5020 
     29 O         -69.9949   27.9234  -75.9639 O.2       9 UNK        -0.5274 
     30 CA        -71.2629   25.9491  -76.4155 C.3       8 UNK         0.0270 
     31 CB        -71.1397   25.2622  -75.0449 C.3       8 UNK        -0.1976 
     32 N         -72.5269   25.5462  -77.0397 N.am      8 UNK        -0.4313 
     33 C         -72.8359   25.7139  -78.3330 C.2       8 UNK         0.5041 
     34 O         -72.0481   26.1470  -79.1746 O.2       8 UNK        -0.5577 
     35 CA        -74.2821   25.3899  -78.7479 C.3       7 UNK         0.0284 
     36 CB        -74.4437   23.8893  -79.0369 C.3       7 UNK        -0.1958 
     37 N         -75.2734   25.8121  -77.7520 N.am      7 UNK        -0.4454 
     38 C         -75.4988   27.0819  -77.3819 C.2       7 UNK         0.5089 
     39 O         -74.9117   28.0495  -77.8631 O.2       7 UNK        -0.5125 
     40 CA        -76.5080   27.3099  -76.2461 C.3       6 UNK         0.0408 
     41 CB        -77.9511   27.2729  -76.7687 C.3       6 UNK        -0.1791 
     42 N         -76.3395   26.3295  -75.1749 N.am      6 UNK        -0.4762 
     43 C         -75.3174   26.3291  -74.3067 C.2       6 UNK         0.5007 
     44 O         -74.4419   27.1968  -74.2829 O.2       6 UNK        -0.5032 
     45 CA        -75.2352   25.1355  -73.3313 C.3       5 UNK         0.0783 
     46 C46       -75.9396   25.3964  -71.9752 C.3       11 UNK        -0.0857 
     47 S47       -77.7582   25.5872  -72.0712 S.3       11 UNK        -0.2512 
     48 C48       -78.0710   26.9060  -70.8460 C.3       11 UNK         0.0225 
     49 N         -75.6680   23.8773  -73.9511 N.am      5 UNK        -0.4615 
     50 C         -74.9779   23.2569  -74.9165 C.2       4 UNK         0.5053 
     51 O         -73.9356   23.6984  -75.3966 O.2       4 UNK        -0.5105 
     52 CA        -75.5404   21.9338  -75.4563 C.3       4 UNK         0.0263 
     53 CB        -75.1891   20.7755  -74.5089 C.3       4 UNK        -0.1981 
     54 N         -76.9815   21.9285  -75.7230 N.am      4 UNK        -0.4224 
     55 C         -77.6467   22.7947  -76.5006 C.2       3 UNK         0.4895 
     56 O         -77.1420   23.8082  -76.9875 O.2       3 UNK        -0.5091 
     57 CA        -79.1068   22.4407  -76.8483 C.3       3 UNK         0.0250 
     58 CB        -79.7455   21.3818  -75.9176 C.3       3 UNK        -0.1996 
     59 N         -79.9655   23.6249  -76.9589 N.am      3 UNK        -0.4254 
     60 C         -80.2860   24.4752  -75.9749 C.2       2 UNK         0.5004 
     61 O         -79.8600   24.3906  -74.8196 O.2       2 UNK        -0.5226 
     62 CA        -81.2767   25.5913  -76.3405 C.3       2 UNK         0.0269 
     63 CB        -82.6334   25.0035  -76.7886 C.3       2 UNK        -0.1926 
     64 N         -81.4597   26.4350  -75.1639 N.am      2 UNK        -0.4687 
     65 C         -82.0850   27.6160  -75.0991 C.2       1 UNK         0.5165 
     66 O         -82.5424   28.1940  -76.0858 O.2       1 UNK        -0.5079 
     67 H67       -84.3390   26.7595  -71.9747 H         1 UNK         0.0900 
     68 H68       -83.7550   25.8005  -73.3482 H         1 UNK         0.0900 
     69 H69       -83.8760   25.0759  -71.7521 H         1 UNK         0.0900 
     70 H70       -80.6827   27.6871  -72.4200 H         1 UNK         0.2959 
     71 H71       -83.3319   28.2907  -73.5284 H         1 UNK         0.1079 
     72 H72       -82.2845   30.3152  -74.4211 H         1 UNK         0.0837 
     73 H73       -80.7026   29.7706  -73.9385 H         1 UNK         0.0837 
     74 H74       -80.5034   31.6804  -70.6316 H         1 UNK         0.0685 
     75 H75       -80.3857   32.1994  -72.2947 H         1 UNK         0.0685 
     76 H76       -80.0460   28.7935  -70.6650 H         1 UNK         0.1434 
     77 H77       -76.1682   28.1497  -72.3677 H         1 UNK         0.1329 
     78 H78       -78.1643   31.8734  -72.9821 H         1 UNK         0.1335 
     79 H79       -75.3514   29.7665  -74.0678 H         1 UNK         0.0680 
     80 H80       -76.1600   31.2946  -74.2788 H         1 UNK         0.0680 
     81 H81       -74.3181   29.0859  -71.7587 H         1 UNK         0.1032 
     82 H82       -73.5329   30.1945  -70.6787 H         1 UNK         0.1032 
     83 H83       -71.7276   30.6042  -72.3059 H         1 UNK         0.0461 
     84 H84       -70.3101   29.7314  -70.7848 H         1 UNK         0.3453 
     85 H85       -70.1295   28.0182  -70.5111 H         1 UNK         0.3453 
     86 H86       -73.0723   28.6162  -74.0895 H         1 UNK         0.2984 
     87 H87       -73.3656   29.9229  -76.4548 H         1 UNK         0.0554 
     88 H88       -71.6849   31.4937  -77.3490 H         1 UNK         0.0847 
     89 H89       -71.7747   30.0737  -78.3777 H         1 UNK         0.0847 
     90 H90       -70.4276   30.2701  -77.2568 H         1 UNK         0.0847 
     91 H91       -73.0568   27.7629  -76.6907 H         1 UNK         0.3141 
     92 H92       -70.4446   25.6002  -77.0487 H         1 UNK         0.0743 
     93 H93       -70.1914   25.5084  -74.5652 H         1 UNK         0.0784 
     94 H94       -71.9361   25.5739  -74.3676 H         1 UNK         0.0784 
     95 H95       -71.1827   24.1769  -75.1381 H         1 UNK         0.0784 
     96 H96       -73.2028   25.0846  -76.4336 H         1 UNK         0.3213 
     97 H97       -74.4905   25.9380  -79.6693 H         1 UNK         0.0855 
     98 H98       -74.2524   23.2850  -78.1504 H         1 UNK         0.0814 
     99 H99       -73.7466   23.5640  -79.8102 H         1 UNK         0.0814 
    100 H100      -75.4496   23.6586  -79.3882 H         1 UNK         0.0814 
    101 H101      -75.8460   25.0793  -77.3356 H         1 UNK         0.3105 
    102 H102      -76.3298   28.3037  -75.8302 H         1 UNK         0.0547 
    103 H103      -78.1895   26.3139  -77.2286 H         1 UNK         0.0837 
    104 H104      -78.1101   28.0438  -77.5236 H         1 UNK         0.0837 
    105 H105      -78.6666   27.4522  -75.9659 H         1 UNK         0.0837 
    106 H106      -76.9966   25.5612  -75.1449 H         1 UNK         0.3020 
    107 H107      -74.1715   25.0224  -73.1057 H         1 UNK         0.1245 
    108 H108      -75.4912   26.2604  -71.4839 H         1 UNK         0.0781 
    109 H109      -75.7384   24.5607  -71.3032 H         1 UNK         0.0781 
    110 H110      -77.3205   26.8718  -70.0553 H         1 UNK         0.0836 
    111 H111      -79.0236   26.6868  -70.3616 H         1 UNK         0.0836 
    112 H112      -76.5371   23.4808  -73.6231 H         1 UNK         0.3022 
    113 H113      -75.0454   21.7438  -76.4104 H         1 UNK         0.0747 
    114 H114      -75.4583   19.8118  -74.9418 H         1 UNK         0.0793 
    115 H115      -74.1172   20.7476  -74.3065 H         1 UNK         0.0793 
    116 H116      -75.6996   20.8676  -73.5494 H         1 UNK         0.0793 
    117 H117      -77.4961   21.1385  -75.3622 H         1 UNK         0.3047 
    118 H118      -79.0691   22.0097  -77.8498 H         1 UNK         0.0822 
    119 H119      -80.7866   21.2027  -76.1867 H         1 UNK         0.0807 
    120 H120      -79.7263   21.6900  -74.8713 H         1 UNK         0.0807 
    121 H121      -79.2349   20.4211  -75.9929 H         1 UNK         0.0807 
    122 H122      -80.3360   23.8014  -77.8822 H         1 UNK         0.2946 
    123 H123      -80.8454   26.1913  -77.1445 H         1 UNK         0.1144 
    124 H124      -83.3461   25.7854  -77.0504 H         1 UNK         0.0793 
    125 H125      -83.0830   24.3931  -76.0043 H         1 UNK         0.0793 
    126 H126      -82.5254   24.3726  -77.6712 H         1 UNK         0.0793 
    127 H127      -81.0507   26.0442  -74.3217 H         1 UNK         0.2896 
@<TRIPOS>BOND
     1    1    2 1    
     2    1   67 1    
     3    1   68 1    
     4    1   69 1    
     5    2    3 2    
     6    2    4 am   BACKBONE|DICT|INTERRES
     7    4    5 1    
     8    4   70 1    
     9    5    6 1    
    10    5   65 1    
    11    5   71 1    
    12    6    7 1    
    13    6   72 1    
    14    6   73 1    
    15    7    8 1    
    16    8    9 1    
    17    8   74 1    
    18    8   75 1    
    19    9   10 ar   
    20    9   14 ar   
    21   10   11 ar   
    22   10   76 1    
    23   11   12 ar   
    24   11   48 1    
    25   12   13 ar   
    26   12   77 1    
    27   13   14 ar   
    28   13   15 1    
    29   14   78 1    
    30   15   16 1    
    31   15   79 1    
    32   15   80 1    
    33   16   17 1    
    34   17   18 1    
    35   17   81 1    
    36   17   82 1    
    37   18   19 1    
    38   18   22 1    
    39   18   83 1    
    40   19   20 am   BACKBONE|DICT|INTERRES
    41   19   21 2    
    42   20   84 1    
    43   20   85 1    
    44   22   23 am   BACKBONE|DICT|INTERRES
    45   22   86 1    
    46   23   24 2    
    47   23   25 1    
    48   25   26 1    
    49   25   27 1    
    50   25   87 1    
    51   26   88 1    
    52   26   89 1    
    53   26   90 1    
    54   27   28 am   BACKBONE|DICT|INTERRES
    55   27   91 1    
    56   28   29 2    
    57   28   30 1    
    58   30   31 1    
    59   30   32 1    
    60   30   92 1    
    61   31   93 1    
    62   31   94 1    
    63   31   95 1    
    64   32   33 am   BACKBONE|DICT|INTERRES
    65   32   96 1    
    66   33   34 2    
    67   33   35 1    
    68   35   36 1    
    69   35   37 1    
    70   35   97 1    
    71   36   98 1    
    72   36   99 1    
    73   36  100 1    
    74   37   38 am   BACKBONE|DICT|INTERRES
    75   37  101 1    
    76   38   39 2    
    77   38   40 1    
    78   40   41 1    
    79   40   42 1    
    80   40  102 1    
    81   41  103 1    
    82   41  104 1    
    83   41  105 1    
    84   42   43 am   BACKBONE|DICT|INTERRES
    85   42  106 1    
    86   43   44 2    
    87   43   45 1    
    88   45   46 1    
    89   45   49 1    
    90   45  107 1    
    91   46   47 1    
    92   46  108 1    
    93   46  109 1    
    94   47   48 1    
    95   48  110 1    
    96   48  111 1    
    97   49   50 am   BACKBONE|DICT|INTERRES
    98   49  112 1    
    99   50   51 2    
   100   50   52 1    
   101   52   53 1    
   102   52   54 1    
   103   52  113 1    
   104   53  114 1    
   105   53  115 1    
   106   53  116 1    
   107   54   55 am   BACKBONE|DICT|INTERRES
   108   54  117 1    
   109   55   56 2    
   110   55   57 1    
   111   57   58 1    
   112   57   59 1    
   113   57  118 1    
   114   58  119 1    
   115   58  120 1    
   116   58  121 1    
   117   59   60 am   BACKBONE|DICT|INTERRES
   118   59  122 1    
   119   60   61 2    
   120   60   62 1    
   121   62   63 1    
   122   62   64 1    
   123   62  123 1    
   124   63  124 1    
   125   63  125 1    
   126   63  126 1    
   127   64   65 am   BACKBONE|DICT|INTERRES
   128   64  127 1    
   129   65   66 2    
@<TRIPOS>SUBSTRUCTURE
     1 UNK         1 GROUP             0       ****    0 ROOT    
