@<TRIPOS>MOLECULE
3R135
127   129    1
SMALL
USER_CHARGES


@<TRIPOS>ATOM
      1 CA        -76.0344   22.6705  -73.9493 C.3       0 UNK        -0.1998 
      2 C         -77.0498   22.8994  -72.8422 C.2       0 UNK         0.4909 
      3 O         -76.8655   22.4130  -71.7268 O.2       0 UNK        -0.5240 
      4 N         -78.1318   23.6247  -73.1476 N.am      1 UNK        -0.4739 
      5 CA        -79.2109   23.9640  -72.2055 C.3       1 UNK         0.0864 
      6 C6        -79.9841   25.2327  -72.6588 C.3       11 UNK        -0.0881 
      7 S7        -78.9137   26.6367  -73.0925 S.3       11 UNK        -0.2682 
      8 C8        -79.2407   27.7993  -71.7362 C.3       11 UNK         0.0289 
      9 C9        -78.5473   29.1151  -72.0338 C.ar      11 UNK        -0.0687 
     10 C10       -79.0915   29.9781  -72.9852 C.ar      11 UNK        -0.0823 
     11 C11       -78.4119   31.1370  -73.3662 C.ar      11 UNK        -0.0830 
     12 C12       -77.1917   31.4489  -72.7562 C.ar      11 UNK        -0.1021 
     13 C13       -76.6502   30.6081  -71.7762 C.ar      11 UNK        -0.0753 
     14 C14       -77.3394   29.4441  -71.4153 C.ar      11 UNK        -0.0933 
     15 C15       -75.3194   30.9553  -71.1171 C.3       11 UNK         0.0166 
     16 S16       -74.1476   29.5644  -71.1870 S.3       11 UNK        -0.2615 
     17 C17       -72.5653   30.3745  -70.7783 C.3       11 UNK        -0.0865 
     18 CA        -71.7797   30.8280  -72.0380 C.3       10 UNK         0.0862 
     19 C         -70.4233   31.4815  -71.6433 C.2       10 UNK         0.5551 
     20 N         -69.2809   30.9465  -72.0563 N.am      10 UNK        -0.7319 
     21 O         -70.4106   32.4968  -70.9516 O.2       10 UNK        -0.5018 
     22 N         -71.6878   29.7547  -73.0423 N.am      10 UNK        -0.4509 
     23 C         -71.4691   29.9330  -74.3482 C.2       10 UNK         0.4899 
     24 O         -71.2334   31.0286  -74.8583 O.2       10 UNK        -0.4839 
     25 CA        -71.5530   28.6933  -75.2542 C.3       9 UNK         0.0222 
     26 CB        -70.1994   27.9623  -75.3393 C.3       9 UNK        -0.1966 
     27 N         -72.6543   27.7748  -74.9321 N.am      9 UNK        -0.4218 
     28 C         -72.8049   26.9415  -73.8917 C.2       9 UNK         0.5020 
     29 O         -72.0132   26.8674  -72.9508 O.2       9 UNK        -0.5274 
     30 CA        -74.0450   26.0257  -73.9071 C.3       8 UNK         0.0270 
     31 CB        -75.2167   26.6589  -73.1450 C.3       8 UNK        -0.1976 
     32 N         -74.4794   25.6797  -75.2639 N.am      8 UNK        -0.4313 
     33 C         -73.8204   24.8349  -76.0709 C.2       8 UNK         0.5041 
     34 O         -72.8423   24.1738  -75.7205 O.2       8 UNK        -0.5577 
     35 CA        -74.3163   24.7287  -77.5209 C.3       7 UNK         0.0284 
     36 CB        -75.4419   23.6907  -77.6515 C.3       7 UNK        -0.1958 
     37 N         -74.7643   26.0261  -78.0319 N.am      7 UNK        -0.4454 
     38 C         -73.9288   26.9869  -78.4545 C.2       7 UNK         0.5089 
     39 O         -72.7077   26.8483  -78.5243 O.2       7 UNK        -0.5125 
     40 CA        -74.5452   28.3373  -78.8620 C.3       6 UNK         0.0408 
     41 CB        -74.7679   28.3848  -80.3818 C.3       6 UNK        -0.1791 
     42 N         -75.8045   28.6469  -78.1811 N.am      6 UNK        -0.4762 
     43 C         -75.9336   28.8894  -76.8674 C.2       6 UNK         0.5007 
     44 O         -74.9929   28.8715  -76.0766 O.2       6 UNK        -0.5032 
     45 CA        -77.3651   29.1551  -76.3555 C.3       5 UNK         0.0783 
     46 C46       -77.6926   30.6603  -76.5445 C.3       11 UNK        -0.0857 
     47 S47       -79.3631   31.1297  -75.9848 S.3       11 UNK        -0.2512 
     48 C48       -78.9978   32.0391  -74.4445 C.3       11 UNK         0.0225 
     49 N         -78.3525   28.2743  -77.0017 N.am      5 UNK        -0.4615 
     50 C         -78.3064   26.9333  -77.0197 C.2       4 UNK         0.5053 
     51 O         -77.4304   26.2776  -76.4521 O.2       4 UNK        -0.5105 
     52 CA        -79.3229   26.2419  -77.9495 C.3       4 UNK         0.0263 
     53 CB        -78.5968   25.4580  -79.0612 C.3       4 UNK        -0.1981 
     54 N         -80.3271   25.3946  -77.2917 N.am      4 UNK        -0.4224 
     55 C         -80.1516   24.2830  -76.5626 C.2       3 UNK         0.4895 
     56 O         -79.0626   23.8409  -76.1826 O.2       3 UNK        -0.5091 
     57 CA        -81.4323   23.4916  -76.2417 C.3       3 UNK         0.0250 
     58 CB        -81.9908   22.8031  -77.5033 C.3       3 UNK        -0.1996 
     59 N         -81.0864   22.4977  -75.2354 N.am      3 UNK        -0.4254 
     60 C         -81.9016   21.7668  -74.4632 C.2       2 UNK         0.5004 
     61 O         -83.1278   21.7480  -74.5679 O.2       2 UNK        -0.5226 
     62 CA        -81.2113   20.9689  -73.3374 C.3       2 UNK         0.0269 
     63 CB        -80.7233   19.6041  -73.8492 C.3       2 UNK        -0.1926 
     64 N         -80.0757   21.7363  -72.8161 N.am      2 UNK        -0.4687 
     65 C         -80.2299   22.8146  -72.0338 C.2       1 UNK         0.5165 
     66 O         -81.1981   22.9700  -71.2878 O.2       1 UNK        -0.5079 
     67 H67       -75.9926   21.6140  -74.2121 H         1 UNK         0.0900 
     68 H68       -75.0426   22.9813  -73.6233 H         1 UNK         0.0900 
     69 H69       -76.2901   23.2352  -74.8446 H         1 UNK         0.0900 
     70 H70       -78.2302   24.0115  -74.0806 H         1 UNK         0.2959 
     71 H71       -78.7723   24.1598  -71.2245 H         1 UNK         0.1079 
     72 H72       -80.5896   25.0182  -73.5415 H         1 UNK         0.0837 
     73 H73       -80.6886   25.5465  -71.8860 H         1 UNK         0.0837 
     74 H74       -78.8904   27.3737  -70.7946 H         1 UNK         0.0685 
     75 H75       -80.3148   27.9623  -71.6347 H         1 UNK         0.0685 
     76 H76       -80.0248   29.7197  -73.4671 H         1 UNK         0.1434 
     77 H77       -76.6609   32.3453  -73.0468 H         1 UNK         0.1329 
     78 H78       -76.9160   28.7763  -70.6777 H         1 UNK         0.1335 
     79 H79       -74.8679   31.8212  -71.6038 H         1 UNK         0.0680 
     80 H80       -75.4920   31.2317  -70.0762 H         1 UNK         0.0680 
     81 H81       -71.9703   29.6651  -70.2001 H         1 UNK         0.1032 
     82 H82       -72.7551   31.2200  -70.1140 H         1 UNK         0.1032 
     83 H83       -72.3619   31.6296  -72.4968 H         1 UNK         0.0461 
     84 H84       -68.4077   31.3786  -71.7984 H         1 UNK         0.3453 
     85 H85       -69.2879   30.1165  -72.6269 H         1 UNK         0.3453 
     86 H86       -71.8603   28.8086  -72.7162 H         1 UNK         0.2984 
     87 H87       -71.7828   29.0603  -76.2559 H         1 UNK         0.0554 
     88 H88       -70.2466   27.1264  -76.0376 H         1 UNK         0.0847 
     89 H89       -69.8802   27.5741  -74.3719 H         1 UNK         0.0847 
     90 H90       -69.4167   28.6354  -75.6915 H         1 UNK         0.0847 
     91 H91       -73.4578   27.8678  -75.5479 H         1 UNK         0.3141 
     92 H92       -73.7716   25.1028  -73.3919 H         1 UNK         0.0743 
     93 H93       -75.5363   27.6018  -73.5910 H         1 UNK         0.0784 
     94 H94       -76.0746   25.9884  -73.1221 H         1 UNK         0.0784 
     95 H95       -74.9427   26.8609  -72.1095 H         1 UNK         0.0784 
     96 H96       -75.3065   26.1458  -75.6189 H         1 UNK         0.3213 
     97 H97       -73.4776   24.3839  -78.1303 H         1 UNK         0.0855 
     98 H98       -76.3302   23.9770  -77.0890 H         1 UNK         0.0814 
     99 H99       -75.1197   22.7183  -77.2768 H         1 UNK         0.0814 
    100 H100      -75.7345   23.5544  -78.6925 H         1 UNK         0.0814 
    101 H101      -75.7508   26.2340  -77.9482 H         1 UNK         0.3105 
    102 H102      -73.8260   29.1161  -78.5991 H         1 UNK         0.0547 
    103 H103      -73.8387   28.1864  -80.9182 H         1 UNK         0.0837 
    104 H104      -75.4962   27.6413  -80.7082 H         1 UNK         0.0837 
    105 H105      -75.1198   29.3654  -80.7024 H         1 UNK         0.0837 
    106 H106      -76.6348   28.6802  -78.7551 H         1 UNK         0.3020 
    107 H107      -77.3751   28.9252  -75.2869 H         1 UNK         0.1245 
    108 H108      -77.6164   30.9393  -77.5974 H         1 UNK         0.0781 
    109 H109      -76.9583   31.2758  -76.0205 H         1 UNK         0.0781 
    110 H110      -79.9219   32.4804  -74.0687 H         1 UNK         0.0836 
    111 H111      -78.3290   32.8716  -74.6686 H         1 UNK         0.0836 
    112 H112      -79.1023   28.7461  -77.4865 H         1 UNK         0.3022 
    113 H113      -79.8957   27.0268  -78.4461 H         1 UNK         0.0747 
    114 H114      -79.2995   25.0958  -79.8116 H         1 UNK         0.0793 
    115 H115      -77.8678   26.0845  -79.5766 H         1 UNK         0.0793 
    116 H116      -78.0630   24.5947  -78.6652 H         1 UNK         0.0793 
    117 H117      -81.2821   25.6598  -77.4893 H         1 UNK         0.3047 
    118 H118      -82.1755   24.1739  -75.8239 H         1 UNK         0.0822 
    119 H119      -82.2478   23.5318  -78.2728 H         1 UNK         0.0807 
    120 H120      -82.8973   22.2389  -77.2843 H         1 UNK         0.0807 
    121 H121      -81.2653   22.1132  -77.9364 H         1 UNK         0.0807 
    122 H122      -80.0869   22.4513  -75.0820 H         1 UNK         0.2946 
    123 H123      -81.9394   20.8035  -72.5395 H         1 UNK         0.1144 
    124 H124      -80.2561   19.0270  -73.0509 H         1 UNK         0.0793 
    125 H125      -79.9984   19.7066  -74.6577 H         1 UNK         0.0793 
    126 H126      -81.5565   19.0127  -74.2312 H         1 UNK         0.0793 
    127 H127      -79.2099   21.6690  -73.3308 H         1 UNK         0.2896 
@<TRIPOS>BOND
     1    1    2 1    
     2    1   67 1    
     3    1   68 1    
     4    1   69 1    
     5    2    3 2    
     6    2    4 am   BACKBONE|DICT|INTERRES
     7    4    5 1    
     8    4   70 1    
     9    5    6 1    
    10    5   65 1    
    11    5   71 1    
    12    6    7 1    
    13    6   72 1    
    14    6   73 1    
    15    7    8 1    
    16    8    9 1    
    17    8   74 1    
    18    8   75 1    
    19    9   10 ar   
    20    9   14 ar   
    21   10   11 ar   
    22   10   76 1    
    23   11   12 ar   
    24   11   48 1    
    25   12   13 ar   
    26   12   77 1    
    27   13   14 ar   
    28   13   15 1    
    29   14   78 1    
    30   15   16 1    
    31   15   79 1    
    32   15   80 1    
    33   16   17 1    
    34   17   18 1    
    35   17   81 1    
    36   17   82 1    
    37   18   19 1    
    38   18   22 1    
    39   18   83 1    
    40   19   20 am   BACKBONE|DICT|INTERRES
    41   19   21 2    
    42   20   84 1    
    43   20   85 1    
    44   22   23 am   BACKBONE|DICT|INTERRES
    45   22   86 1    
    46   23   24 2    
    47   23   25 1    
    48   25   26 1    
    49   25   27 1    
    50   25   87 1    
    51   26   88 1    
    52   26   89 1    
    53   26   90 1    
    54   27   28 am   BACKBONE|DICT|INTERRES
    55   27   91 1    
    56   28   29 2    
    57   28   30 1    
    58   30   31 1    
    59   30   32 1    
    60   30   92 1    
    61   31   93 1    
    62   31   94 1    
    63   31   95 1    
    64   32   33 am   BACKBONE|DICT|INTERRES
    65   32   96 1    
    66   33   34 2    
    67   33   35 1    
    68   35   36 1    
    69   35   37 1    
    70   35   97 1    
    71   36   98 1    
    72   36   99 1    
    73   36  100 1    
    74   37   38 am   BACKBONE|DICT|INTERRES
    75   37  101 1    
    76   38   39 2    
    77   38   40 1    
    78   40   41 1    
    79   40   42 1    
    80   40  102 1    
    81   41  103 1    
    82   41  104 1    
    83   41  105 1    
    84   42   43 am   BACKBONE|DICT|INTERRES
    85   42  106 1    
    86   43   44 2    
    87   43   45 1    
    88   45   46 1    
    89   45   49 1    
    90   45  107 1    
    91   46   47 1    
    92   46  108 1    
    93   46  109 1    
    94   47   48 1    
    95   48  110 1    
    96   48  111 1    
    97   49   50 am   BACKBONE|DICT|INTERRES
    98   49  112 1    
    99   50   51 2    
   100   50   52 1    
   101   52   53 1    
   102   52   54 1    
   103   52  113 1    
   104   53  114 1    
   105   53  115 1    
   106   53  116 1    
   107   54   55 am   BACKBONE|DICT|INTERRES
   108   54  117 1    
   109   55   56 2    
   110   55   57 1    
   111   57   58 1    
   112   57   59 1    
   113   57  118 1    
   114   58  119 1    
   115   58  120 1    
   116   58  121 1    
   117   59   60 am   BACKBONE|DICT|INTERRES
   118   59  122 1    
   119   60   61 2    
   120   60   62 1    
   121   62   63 1    
   122   62   64 1    
   123   62  123 1    
   124   63  124 1    
   125   63  125 1    
   126   63  126 1    
   127   64   65 am   BACKBONE|DICT|INTERRES
   128   64  127 1    
   129   65   66 2    
@<TRIPOS>SUBSTRUCTURE
     1 UNK         1 GROUP             0       ****    0 ROOT    
