@<TRIPOS>MOLECULE
3R135
127   129    1
SMALL
USER_CHARGES


@<TRIPOS>ATOM
      1 CA        -85.1500   29.5134  -69.6964 C.3       0 UNK        -0.1998 
      2 C         -84.6788   29.4792  -71.1426 C.2       0 UNK         0.4909 
      3 O         -85.4750   29.7142  -72.0526 O.2       0 UNK        -0.5240 
      4 N         -83.3884   29.1985  -71.3607 N.am      1 UNK        -0.4739 
      5 CA        -82.7737   29.0394  -72.6821 C.3       1 UNK         0.0864 
      6 C6        -81.2281   29.1747  -72.6195 C.3       11 UNK        -0.0881 
      7 S7        -80.4252   28.1160  -71.3620 S.3       11 UNK        -0.2682 
      8 C8        -79.8035   26.7485  -72.3842 C.3       11 UNK         0.0289 
      9 C9        -78.3150   26.8742  -72.6762 C.ar      11 UNK        -0.0687 
     10 C10       -77.4081   26.0244  -72.0362 C.ar      11 UNK        -0.0823 
     11 C11       -76.0463   26.0725  -72.3457 C.ar      11 UNK        -0.0830 
     12 C12       -75.5917   26.9843  -73.3023 C.ar      11 UNK        -0.1021 
     13 C13       -76.4863   27.8405  -73.9503 C.ar      11 UNK        -0.0753 
     14 C14       -77.8460   27.7887  -73.6262 C.ar      11 UNK        -0.0933 
     15 C15       -75.9884   28.7953  -75.0266 C.3       11 UNK         0.0166 
     16 S16       -75.9937   30.5302  -74.4766 S.3       11 UNK        -0.2615 
     17 C17       -74.7081   30.5455  -73.1792 C.3       11 UNK        -0.0865 
     18 CA        -73.3811   31.1936  -73.6559 C.3       10 UNK         0.0862 
     19 C         -72.4449   31.5042  -72.4485 C.2       10 UNK         0.5551 
     20 N         -71.2356   30.9617  -72.3688 N.am      10 UNK        -0.7319 
     21 O         -72.8258   32.2664  -71.5634 O.2       10 UNK        -0.5018 
     22 N         -72.7496   30.4120  -74.7327 N.am      10 UNK        -0.4509 
     23 C         -71.8650   30.8984  -75.6127 C.2       10 UNK         0.4899 
     24 O         -71.5600   32.0902  -75.6833 O.2       10 UNK        -0.4839 
     25 CA        -71.2052   29.8773  -76.5667 C.3       9 UNK         0.0222 
     26 CB        -69.8753   30.3938  -77.1550 C.3       9 UNK        -0.1966 
     27 N         -71.0135   28.5384  -75.9869 N.am      9 UNK        -0.4218 
     28 C         -70.3555   28.2299  -74.8549 C.2       9 UNK         0.5020 
     29 O         -69.8516   29.0694  -74.1081 O.2       9 UNK        -0.5274 
     30 CA        -70.2686   26.7448  -74.4526 C.3       8 UNK         0.0270 
     31 CB        -71.2569   26.4436  -73.3139 C.3       8 UNK        -0.1976 
     32 N         -70.5189   25.8194  -75.5593 N.am      8 UNK        -0.4313 
     33 C         -69.6721   25.5873  -76.5713 C.2       8 UNK         0.5041 
     34 O         -68.5443   26.0760  -76.6470 O.2       8 UNK        -0.5577 
     35 CA        -70.1740   24.6696  -77.7013 C.3       7 UNK         0.0284 
     36 CB        -69.6552   23.2369  -77.4990 C.3       7 UNK        -0.1958 
     37 N         -71.6342   24.6338  -77.8496 N.am      7 UNK        -0.4454 
     38 C         -72.4200   25.6739  -78.1564 C.2       7 UNK         0.5089 
     39 O         -72.0104   26.8288  -78.2744 O.2       7 UNK        -0.5125 
     40 CA        -73.9231   25.3893  -78.3105 C.3       6 UNK         0.0408 
     41 CB        -74.2161   24.5084  -79.5408 C.3       6 UNK        -0.1791 
     42 N         -74.5483   24.8548  -77.0941 N.am      6 UNK        -0.4762 
     43 C         -74.3560   23.6728  -76.4838 C.2       6 UNK         0.5007 
     44 O         -73.5728   22.8110  -76.8846 O.2       6 UNK        -0.5032 
     45 CA        -75.1557   23.4292  -75.1861 C.3       5 UNK         0.0783 
     46 C46       -74.2529   23.7202  -73.9603 C.3       11 UNK        -0.0857 
     47 S47       -75.0965   23.4608  -72.3633 S.3       11 UNK        -0.2512 
     48 C48       -75.0733   25.1357  -71.6436 C.3       11 UNK         0.0225 
     49 N         -76.3985   24.2111  -75.1685 N.am      5 UNK        -0.4615 
     50 C         -77.4836   23.9284  -75.9004 C.2       4 UNK         0.5053 
     51 O         -77.6052   22.9233  -76.6032 O.2       4 UNK        -0.5105 
     52 CA        -78.5859   24.9955  -75.9012 C.3       4 UNK         0.0263 
     53 CB        -78.5863   25.7782  -77.2240 C.3       4 UNK        -0.1981 
     54 N         -79.9226   24.4631  -75.6515 N.am      4 UNK        -0.4224 
     55 C         -80.3292   23.8775  -74.5187 C.2       3 UNK         0.4895 
     56 O         -79.5851   23.6274  -73.5694 O.2       3 UNK        -0.5091 
     57 CA        -81.8397   23.5893  -74.4121 C.3       3 UNK         0.0250 
     58 CB        -82.2196   22.9015  -73.0873 C.3       3 UNK        -0.1996 
     59 N         -82.6344   24.8154  -74.5475 N.am      3 UNK        -0.4254 
     60 C         -82.9277   25.4374  -75.6954 C.2       2 UNK         0.5004 
     61 O         -82.5311   25.0463  -76.7943 O.2       2 UNK        -0.5226 
     62 CA        -83.7923   26.7085  -75.6199 C.3       2 UNK         0.0269 
     63 CB        -85.2691   26.3591  -75.3470 C.3       2 UNK        -0.1926 
     64 N         -83.3050   27.7514  -74.7009 N.am      2 UNK        -0.4687 
     65 C         -83.2305   27.7274  -73.3614 C.2       1 UNK         0.5165 
     66 O         -83.4942   26.7350  -72.6760 O.2       1 UNK        -0.5079 
     67 H67       -84.3398   29.3011  -68.9990 H         1 UNK         0.0900 
     68 H68       -85.9342   28.7731  -69.5404 H         1 UNK         0.0900 
     69 H69       -85.5553   30.4960  -69.4565 H         1 UNK         0.0900 
     70 H70       -82.7829   28.9783  -70.5821 H         1 UNK         0.2959 
     71 H71       -83.1426   29.8601  -73.3022 H         1 UNK         0.1079 
     72 H72       -80.7819   29.0055  -73.6006 H         1 UNK         0.0837 
     73 H73       -80.9761   30.2068  -72.3704 H         1 UNK         0.0837 
     74 H74       -80.3577   26.6863  -73.3211 H         1 UNK         0.0685 
     75 H75       -80.0079   25.8143  -71.8589 H         1 UNK         0.0685 
     76 H76       -77.7648   25.3059  -71.3105 H         1 UNK         0.1434 
     77 H77       -74.5409   27.0270  -73.5463 H         1 UNK         0.1329 
     78 H78       -78.5400   28.4430  -74.1344 H         1 UNK         0.1335 
     79 H79       -76.6306   28.7069  -75.9042 H         1 UNK         0.0680 
     80 H80       -74.9855   28.5237  -75.3587 H         1 UNK         0.0680 
     81 H81       -75.1255   31.1050  -72.3397 H         1 UNK         0.1032 
     82 H82       -74.5302   29.5395  -72.7988 H         1 UNK         0.1032 
     83 H83       -73.6363   32.1696  -74.0736 H         1 UNK         0.0461 
     84 H84       -70.8803   30.3416  -73.0904 H         1 UNK         0.3453 
     85 H85       -70.6524   31.1859  -71.5788 H         1 UNK         0.3453 
     86 H86       -72.9315   29.4214  -74.7341 H         1 UNK         0.2984 
     87 H87       -71.9027   29.7480  -77.3954 H         1 UNK         0.0554 
     88 H88       -70.0226   31.3217  -77.7091 H         1 UNK         0.0847 
     89 H89       -69.4416   29.6717  -77.8469 H         1 UNK         0.0847 
     90 H90       -69.1404   30.5931  -76.3743 H         1 UNK         0.0847 
     91 H91       -71.3728   27.7780  -76.5552 H         1 UNK         0.3141 
     92 H92       -69.2565   26.5676  -74.0822 H         1 UNK         0.0743 
     93 H93       -71.0655   27.0836  -72.4511 H         1 UNK         0.0784 
     94 H94       -72.2871   26.6143  -73.6217 H         1 UNK         0.0784 
     95 H95       -71.1719   25.4113  -72.9733 H         1 UNK         0.0784 
     96 H96       -71.4131   25.3531  -75.5787 H         1 UNK         0.3213 
     97 H97       -69.7603   25.0561  -78.6352 H         1 UNK         0.0855 
     98 H98       -70.0651   22.7830  -76.5958 H         1 UNK         0.0814 
     99 H99       -68.5681   23.2235  -77.4070 H         1 UNK         0.0814 
    100 H100      -69.9144   22.5978  -78.3433 H         1 UNK         0.0814 
    101 H101      -72.0962   23.7410  -77.6953 H         1 UNK         0.3105 
    102 H102      -74.4049   26.3525  -78.4870 H         1 UNK         0.0547 
    103 H103      -73.7756   23.5149  -79.4561 H         1 UNK         0.0837 
    104 H104      -75.2887   24.3845  -79.6898 H         1 UNK         0.0837 
    105 H105      -73.8143   24.9625  -80.4475 H         1 UNK         0.0837 
    106 H106      -75.2043   25.4815  -76.6510 H         1 UNK         0.3020 
    107 H107      -75.4225   22.3697  -75.1690 H         1 UNK         0.1245 
    108 H108      -73.8588   24.7356  -74.0027 H         1 UNK         0.0781 
    109 H109      -73.3804   23.0637  -73.9736 H         1 UNK         0.0781 
    110 H110      -75.3390   25.0657  -70.5877 H         1 UNK         0.0836 
    111 H111      -74.0581   25.5351  -71.6708 H         1 UNK         0.0836 
    112 H112      -76.4117   25.0143  -74.5540 H         1 UNK         0.3022 
    113 H113      -78.3765   25.6984  -75.1011 H         1 UNK         0.0747 
    114 H114      -77.6076   26.2175  -77.4212 H         1 UNK         0.0793 
    115 H115      -79.3077   26.5954  -77.2013 H         1 UNK         0.0793 
    116 H116      -78.8325   25.1359  -78.0707 H         1 UNK         0.0793 
    117 H117      -80.6256   24.6297  -76.3647 H         1 UNK         0.3047 
    118 H118      -82.0976   22.9092  -75.2269 H         1 UNK         0.0822 
    119 H119      -81.6684   21.9691  -72.9576 H         1 UNK         0.0807 
    120 H120      -83.2812   22.6556  -73.0587 H         1 UNK         0.0807 
    121 H121      -81.9992   23.5351  -72.2270 H         1 UNK         0.0807 
    122 H122      -82.9611   25.2552  -73.6900 H         1 UNK         0.2946 
    123 H123      -83.7520   27.1573  -76.6144 H         1 UNK         0.1144 
    124 H124      -85.6462   25.6561  -76.0910 H         1 UNK         0.0793 
    125 H125      -85.9004   27.2466  -75.3921 H         1 UNK         0.0793 
    126 H126      -85.4098   25.8989  -74.3686 H         1 UNK         0.0793 
    127 H127      -83.0243   28.6062  -75.1626 H         1 UNK         0.2896 
@<TRIPOS>BOND
     1    1    2 1    
     2    1   67 1    
     3    1   68 1    
     4    1   69 1    
     5    2    3 2    
     6    2    4 am   BACKBONE|DICT|INTERRES
     7    4    5 1    
     8    4   70 1    
     9    5    6 1    
    10    5   65 1    
    11    5   71 1    
    12    6    7 1    
    13    6   72 1    
    14    6   73 1    
    15    7    8 1    
    16    8    9 1    
    17    8   74 1    
    18    8   75 1    
    19    9   10 ar   
    20    9   14 ar   
    21   10   11 ar   
    22   10   76 1    
    23   11   12 ar   
    24   11   48 1    
    25   12   13 ar   
    26   12   77 1    
    27   13   14 ar   
    28   13   15 1    
    29   14   78 1    
    30   15   16 1    
    31   15   79 1    
    32   15   80 1    
    33   16   17 1    
    34   17   18 1    
    35   17   81 1    
    36   17   82 1    
    37   18   19 1    
    38   18   22 1    
    39   18   83 1    
    40   19   20 am   BACKBONE|DICT|INTERRES
    41   19   21 2    
    42   20   84 1    
    43   20   85 1    
    44   22   23 am   BACKBONE|DICT|INTERRES
    45   22   86 1    
    46   23   24 2    
    47   23   25 1    
    48   25   26 1    
    49   25   27 1    
    50   25   87 1    
    51   26   88 1    
    52   26   89 1    
    53   26   90 1    
    54   27   28 am   BACKBONE|DICT|INTERRES
    55   27   91 1    
    56   28   29 2    
    57   28   30 1    
    58   30   31 1    
    59   30   32 1    
    60   30   92 1    
    61   31   93 1    
    62   31   94 1    
    63   31   95 1    
    64   32   33 am   BACKBONE|DICT|INTERRES
    65   32   96 1    
    66   33   34 2    
    67   33   35 1    
    68   35   36 1    
    69   35   37 1    
    70   35   97 1    
    71   36   98 1    
    72   36   99 1    
    73   36  100 1    
    74   37   38 am   BACKBONE|DICT|INTERRES
    75   37  101 1    
    76   38   39 2    
    77   38   40 1    
    78   40   41 1    
    79   40   42 1    
    80   40  102 1    
    81   41  103 1    
    82   41  104 1    
    83   41  105 1    
    84   42   43 am   BACKBONE|DICT|INTERRES
    85   42  106 1    
    86   43   44 2    
    87   43   45 1    
    88   45   46 1    
    89   45   49 1    
    90   45  107 1    
    91   46   47 1    
    92   46  108 1    
    93   46  109 1    
    94   47   48 1    
    95   48  110 1    
    96   48  111 1    
    97   49   50 am   BACKBONE|DICT|INTERRES
    98   49  112 1    
    99   50   51 2    
   100   50   52 1    
   101   52   53 1    
   102   52   54 1    
   103   52  113 1    
   104   53  114 1    
   105   53  115 1    
   106   53  116 1    
   107   54   55 am   BACKBONE|DICT|INTERRES
   108   54  117 1    
   109   55   56 2    
   110   55   57 1    
   111   57   58 1    
   112   57   59 1    
   113   57  118 1    
   114   58  119 1    
   115   58  120 1    
   116   58  121 1    
   117   59   60 am   BACKBONE|DICT|INTERRES
   118   59  122 1    
   119   60   61 2    
   120   60   62 1    
   121   62   63 1    
   122   62   64 1    
   123   62  123 1    
   124   63  124 1    
   125   63  125 1    
   126   63  126 1    
   127   64   65 am   BACKBONE|DICT|INTERRES
   128   64  127 1    
   129   65   66 2    
@<TRIPOS>SUBSTRUCTURE
     1 UNK         1 GROUP             0       ****    0 ROOT    
