@<TRIPOS>MOLECULE
3R135
127   129    1
SMALL
USER_CHARGES


@<TRIPOS>ATOM
      1 CA        -79.2119   29.3462  -74.7259 C.3       0 UNK        -0.1998 
      2 C         -80.6529   29.2589  -75.2202 C.2       0 UNK         0.4909 
      3 O         -80.9571   29.8092  -76.2766 O.2       0 UNK        -0.5240 
      4 N         -81.5755   28.5885  -74.5173 N.am      1 UNK        -0.4739 
      5 CA        -81.3961   27.8354  -73.2698 C.3       1 UNK         0.0864 
      6 C6        -82.1135   28.5017  -72.0637 C.3       11 UNK        -0.0881 
      7 S7        -81.5543   30.2122  -71.7368 S.3       11 UNK        -0.2682 
      8 C8        -80.5541   30.0366  -70.2234 C.3       11 UNK         0.0289 
      9 C9        -79.1783   29.4577  -70.5176 C.ar      11 UNK        -0.0687 
     10 C10       -78.9381   28.0920  -70.3450 C.ar      11 UNK        -0.0823 
     11 C11       -77.6863   27.5524  -70.6503 C.ar      11 UNK        -0.0830 
     12 C12       -76.6645   28.3897  -71.1049 C.ar      11 UNK        -0.1021 
     13 C13       -76.8855   29.7592  -71.2712 C.ar      11 UNK        -0.0753 
     14 C14       -78.1468   30.2874  -70.9727 C.ar      11 UNK        -0.0933 
     15 C15       -75.7838   30.6567  -71.8243 C.3       11 UNK         0.0166 
     16 S16       -74.1909   30.4256  -70.9659 S.3       11 UNK        -0.2615 
     17 C17       -73.1703   31.7196  -71.7531 C.3       11 UNK        -0.0865 
     18 CA        -72.0423   31.1902  -72.6804 C.3       10 UNK         0.0862 
     19 C         -70.8900   30.4677  -71.9195 C.2       10 UNK         0.5551 
     20 N         -70.3398   29.3694  -72.4248 N.am      10 UNK        -0.7319 
     21 O         -70.4668   30.9244  -70.8604 O.2       10 UNK        -0.5018 
     22 N         -72.5775   30.4298  -73.8229 N.am      10 UNK        -0.4509 
     23 C         -72.1457   30.5513  -75.0839 C.2       10 UNK         0.4899 
     24 O         -71.3003   31.3744  -75.4413 O.2       10 UNK        -0.4839 
     25 CA        -72.7543   29.5773  -76.1123 C.3       9 UNK         0.0222 
     26 CB        -72.1061   29.7123  -77.5061 C.3       9 UNK        -0.1966 
     27 N         -72.7308   28.1716  -75.6878 N.am      9 UNK        -0.4218 
     28 C         -71.6695   27.4493  -75.2963 C.2       9 UNK         0.5020 
     29 O         -70.5509   27.9193  -75.0853 O.2       9 UNK        -0.5274 
     30 CA        -71.8886   25.9357  -75.1184 C.3       8 UNK         0.0270 
     31 CB        -72.4501   25.6281  -73.7204 C.3       8 UNK        -0.1976 
     32 N         -72.7569   25.3538  -76.1495 N.am      8 UNK        -0.4313 
     33 C         -72.4444   25.2657  -77.4524 C.2       8 UNK         0.5041 
     34 O         -71.3555   25.6025  -77.9192 O.2       8 UNK        -0.5577 
     35 CA        -73.5275   24.7227  -78.4034 C.3       7 UNK         0.0284 
     36 CB        -73.5396   23.1856  -78.4124 C.3       7 UNK        -0.1958 
     37 N         -74.8620   25.2317  -78.0798 N.am      7 UNK        -0.4454 
     38 C         -75.2505   26.5012  -78.2708 C.2       7 UNK         0.5089 
     39 O         -74.5686   27.3474  -78.8477 O.2       7 UNK        -0.5125 
     40 CA        -76.6158   26.9108  -77.6911 C.3       6 UNK         0.0408 
     41 CB        -77.7397   26.6668  -78.7093 C.3       6 UNK        -0.1791 
     42 N         -76.9311   26.2223  -76.4382 N.am      6 UNK        -0.4762 
     43 C         -76.2422   26.3595  -75.2963 C.2       6 UNK         0.5007 
     44 O         -75.2971   27.1349  -75.1592 O.2       6 UNK        -0.5032 
     45 CA        -76.6564   25.4542  -74.1219 C.3       5 UNK         0.0783 
     46 C46       -77.8671   26.0613  -73.3911 C.3       11 UNK        -0.0857 
     47 S47       -78.3397   25.1521  -71.8794 S.3       11 UNK        -0.2512 
     48 C48       -77.4517   26.0529  -70.5659 C.3       11 UNK         0.0225 
     49 N         -76.9188   24.0860  -74.5686 N.am      5 UNK        -0.4615 
     50 C         -75.9916   23.2490  -75.0460 C.2       4 UNK         0.5053 
     51 O         -74.7970   23.5311  -75.1287 O.2       4 UNK        -0.5105 
     52 CA        -76.4936   21.8868  -75.5518 C.3       4 UNK         0.0263 
     53 CB        -76.5884   20.8835  -74.3920 C.3       4 UNK        -0.1981 
     54 N         -77.7923   21.9832  -76.2268 N.am      4 UNK        -0.4224 
     55 C         -77.9888   22.6100  -77.3962 C.2       3 UNK         0.4895 
     56 O         -77.0868   23.1341  -78.0505 O.2       3 UNK        -0.5091 
     57 CA        -79.4441   22.7102  -77.8911 C.3       3 UNK         0.0250 
     58 CB        -79.8757   21.4059  -78.5804 C.3       3 UNK        -0.1996 
     59 N         -80.4008   23.0524  -76.8286 N.am      3 UNK        -0.4254 
     60 C         -80.3664   24.1969  -76.1325 C.2       2 UNK         0.5004 
     61 O         -79.5224   25.0775  -76.3248 O.2       2 UNK        -0.5226 
     62 CA        -81.4053   24.3832  -75.0138 C.3       2 UNK         0.0269 
     63 CB        -81.1598   23.3563  -73.8864 C.3       2 UNK        -0.1926 
     64 N         -81.2537   25.7573  -74.5325 N.am      2 UNK        -0.4687 
     65 C         -81.8713   26.3896  -73.5283 C.2       1 UNK         0.5165 
     66 O         -82.7828   25.8985  -72.8612 O.2       1 UNK        -0.5079 
     67 H67       -79.1586   29.5485  -73.6569 H         1 UNK         0.0900 
     68 H68       -78.6801   28.4228  -74.9469 H         1 UNK         0.0900 
     69 H69       -78.6880   30.1569  -75.2322 H         1 UNK         0.0900 
     70 H70       -82.5129   28.5459  -74.8928 H         1 UNK         0.2959 
     71 H71       -80.3413   27.7477  -73.0094 H         1 UNK         0.1079 
     72 H72       -81.9786   27.9017  -71.1621 H         1 UNK         0.0837 
     73 H73       -83.1904   28.5378  -72.2388 H         1 UNK         0.0837 
     74 H74       -81.0874   29.4250  -69.4939 H         1 UNK         0.0685 
     75 H75       -80.4405   31.0203  -69.7656 H         1 UNK         0.0685 
     76 H76       -79.7325   27.4411  -70.0064 H         1 UNK         0.1434 
     77 H77       -75.7012   27.9701  -71.3617 H         1 UNK         0.1329 
     78 H78       -78.3365   31.3428  -71.1139 H         1 UNK         0.1335 
     79 H79       -76.0772   31.7047  -71.7475 H         1 UNK         0.0680 
     80 H80       -75.6539   30.4426  -72.8863 H         1 UNK         0.0680 
     81 H81       -72.7464   32.3412  -70.9623 H         1 UNK         0.1032 
     82 H82       -73.8132   32.3920  -72.3226 H         1 UNK         0.1032 
     83 H83       -71.5608   32.0881  -73.0717 H         1 UNK         0.0461 
     84 H84       -69.5900   28.9239  -71.9209 H         1 UNK         0.3453 
     85 H85       -70.6140   29.0136  -73.3327 H         1 UNK         0.3453 
     86 H86       -73.2465   29.7072  -73.5989 H         1 UNK         0.2984 
     87 H87       -73.8065   29.8479  -76.2091 H         1 UNK         0.0554 
     88 H88       -72.2072   30.7276  -77.8908 H         1 UNK         0.0847 
     89 H89       -72.5756   29.0456  -78.2285 H         1 UNK         0.0847 
     90 H90       -71.0417   29.4767  -77.4797 H         1 UNK         0.0847 
     91 H91       -73.6326   27.6978  -75.7082 H         1 UNK         0.3141 
     92 H92       -70.9134   25.4514  -75.2021 H         1 UNK         0.0743 
     93 H93       -71.7790   25.9962  -72.9433 H         1 UNK         0.0784 
     94 H94       -73.4199   26.0973  -73.5585 H         1 UNK         0.0784 
     95 H95       -72.5669   24.5552  -73.5667 H         1 UNK         0.0784 
     96 H96       -73.6415   24.9635  -75.8376 H         1 UNK         0.3213 
     97 H97       -73.2780   25.0594  -79.4122 H         1 UNK         0.0855 
     98 H98       -73.7646   22.7724  -77.4297 H         1 UNK         0.0814 
     99 H99       -72.5682   22.7922  -78.7148 H         1 UNK         0.0814 
    100 H100      -74.2793   22.7992  -79.1139 H         1 UNK         0.0814 
    101 H101      -75.5225   24.5808  -77.6702 H         1 UNK         0.3105 
    102 H102      -76.5772   27.9814  -77.4789 H         1 UNK         0.0547 
    103 H103      -78.6999   27.0185  -78.3312 H         1 UNK         0.0837 
    104 H104      -77.8437   25.6087  -78.9504 H         1 UNK         0.0837 
    105 H105      -77.5434   27.1971  -79.6420 H         1 UNK         0.0837 
    106 H106      -77.7432   25.6081  -76.4504 H         1 UNK         0.3020 
    107 H107      -75.8156   25.4241  -73.4254 H         1 UNK         0.1245 
    108 H108      -78.7279   26.0580  -74.0522 H         1 UNK         0.0781 
    109 H109      -77.6933   27.1119  -73.1706 H         1 UNK         0.0781 
    110 H110      -76.3876   25.8216  -70.6347 H         1 UNK         0.0836 
    111 H111      -77.7824   25.6853  -69.5935 H         1 UNK         0.0836 
    112 H112      -77.8801   23.7842  -74.5434 H         1 UNK         0.3022 
    113 H113      -75.7636   21.5110  -76.2720 H         1 UNK         0.0747 
    114 H114      -76.8723   19.8927  -74.7469 H         1 UNK         0.0793 
    115 H115      -75.6268   20.7815  -73.8868 H         1 UNK         0.0793 
    116 H116      -77.3181   21.1951  -73.6433 H         1 UNK         0.0793 
    117 H117      -78.5871   21.5724  -75.7595 H         1 UNK         0.3047 
    118 H118      -79.4777   23.5110  -78.6332 H         1 UNK         0.0822 
    119 H119      -80.8655   21.5025  -79.0272 H         1 UNK         0.0807 
    120 H120      -79.9015   20.5664  -77.8846 H         1 UNK         0.0807 
    121 H121      -79.1851   21.1429  -79.3831 H         1 UNK         0.0807 
    122 H122      -81.1194   22.3724  -76.6243 H         1 UNK         0.2946 
    123 H123      -82.4067   24.2608  -75.4307 H         1 UNK         0.1144 
    124 H124      -80.1615   23.4540  -73.4608 H         1 UNK         0.0793 
    125 H125      -81.2575   22.3339  -74.2527 H         1 UNK         0.0793 
    126 H126      -81.8784   23.4623  -73.0746 H         1 UNK         0.0793 
    127 H127      -80.5569   26.2608  -75.0696 H         1 UNK         0.2896 
@<TRIPOS>BOND
     1    1    2 1    
     2    1   67 1    
     3    1   68 1    
     4    1   69 1    
     5    2    3 2    
     6    2    4 am   BACKBONE|DICT|INTERRES
     7    4    5 1    
     8    4   70 1    
     9    5    6 1    
    10    5   65 1    
    11    5   71 1    
    12    6    7 1    
    13    6   72 1    
    14    6   73 1    
    15    7    8 1    
    16    8    9 1    
    17    8   74 1    
    18    8   75 1    
    19    9   10 ar   
    20    9   14 ar   
    21   10   11 ar   
    22   10   76 1    
    23   11   12 ar   
    24   11   48 1    
    25   12   13 ar   
    26   12   77 1    
    27   13   14 ar   
    28   13   15 1    
    29   14   78 1    
    30   15   16 1    
    31   15   79 1    
    32   15   80 1    
    33   16   17 1    
    34   17   18 1    
    35   17   81 1    
    36   17   82 1    
    37   18   19 1    
    38   18   22 1    
    39   18   83 1    
    40   19   20 am   BACKBONE|DICT|INTERRES
    41   19   21 2    
    42   20   84 1    
    43   20   85 1    
    44   22   23 am   BACKBONE|DICT|INTERRES
    45   22   86 1    
    46   23   24 2    
    47   23   25 1    
    48   25   26 1    
    49   25   27 1    
    50   25   87 1    
    51   26   88 1    
    52   26   89 1    
    53   26   90 1    
    54   27   28 am   BACKBONE|DICT|INTERRES
    55   27   91 1    
    56   28   29 2    
    57   28   30 1    
    58   30   31 1    
    59   30   32 1    
    60   30   92 1    
    61   31   93 1    
    62   31   94 1    
    63   31   95 1    
    64   32   33 am   BACKBONE|DICT|INTERRES
    65   32   96 1    
    66   33   34 2    
    67   33   35 1    
    68   35   36 1    
    69   35   37 1    
    70   35   97 1    
    71   36   98 1    
    72   36   99 1    
    73   36  100 1    
    74   37   38 am   BACKBONE|DICT|INTERRES
    75   37  101 1    
    76   38   39 2    
    77   38   40 1    
    78   40   41 1    
    79   40   42 1    
    80   40  102 1    
    81   41  103 1    
    82   41  104 1    
    83   41  105 1    
    84   42   43 am   BACKBONE|DICT|INTERRES
    85   42  106 1    
    86   43   44 2    
    87   43   45 1    
    88   45   46 1    
    89   45   49 1    
    90   45  107 1    
    91   46   47 1    
    92   46  108 1    
    93   46  109 1    
    94   47   48 1    
    95   48  110 1    
    96   48  111 1    
    97   49   50 am   BACKBONE|DICT|INTERRES
    98   49  112 1    
    99   50   51 2    
   100   50   52 1    
   101   52   53 1    
   102   52   54 1    
   103   52  113 1    
   104   53  114 1    
   105   53  115 1    
   106   53  116 1    
   107   54   55 am   BACKBONE|DICT|INTERRES
   108   54  117 1    
   109   55   56 2    
   110   55   57 1    
   111   57   58 1    
   112   57   59 1    
   113   57  118 1    
   114   58  119 1    
   115   58  120 1    
   116   58  121 1    
   117   59   60 am   BACKBONE|DICT|INTERRES
   118   59  122 1    
   119   60   61 2    
   120   60   62 1    
   121   62   63 1    
   122   62   64 1    
   123   62  123 1    
   124   63  124 1    
   125   63  125 1    
   126   63  126 1    
   127   64   65 am   BACKBONE|DICT|INTERRES
   128   64  127 1    
   129   65   66 2    
@<TRIPOS>SUBSTRUCTURE
     1 UNK         1 GROUP             0       ****    0 ROOT    
