@<TRIPOS>MOLECULE
3R135
127   129    1
SMALL
USER_CHARGES


@<TRIPOS>ATOM
      1 CA        -81.6952   21.7228  -71.2325 C.3       0 UNK        -0.1998 
      2 C         -80.9557   22.9770  -71.6706 C.2       0 UNK         0.4909 
      3 O         -80.0693   22.8918  -72.5217 O.2       0 UNK        -0.5240 
      4 N         -81.3280   24.1392  -71.1099 N.am      1 UNK        -0.4739 
      5 CA        -80.7400   25.4623  -71.3713 C.3       1 UNK         0.0864 
      6 C6        -79.3321   25.5994  -70.7272 C.3       11 UNK        -0.0881 
      7 S7        -78.7091   27.3166  -70.6416 S.3       11 UNK        -0.2682 
      8 C8        -77.2526   27.2215  -71.7406 C.3       11 UNK         0.0289 
      9 C9        -77.0635   28.4722  -72.5864 C.ar      11 UNK        -0.0687 
     10 C10       -78.1149   28.9441  -73.3752 C.ar      11 UNK        -0.0823 
     11 C11       -77.9333   30.0279  -74.2345 C.ar      11 UNK        -0.0830 
     12 C12       -76.6928   30.6690  -74.2783 C.ar      11 UNK        -0.1021 
     13 C13       -75.6315   30.2124  -73.4903 C.ar      11 UNK        -0.0753 
     14 C14       -75.8202   29.1092  -72.6502 C.ar      11 UNK        -0.0933 
     15 C15       -74.2683   30.8755  -73.6024 C.3       11 UNK         0.0166 
     16 S16       -74.0107   32.1672  -72.3502 S.3       11 UNK        -0.2615 
     17 C17       -73.2526   31.2343  -70.9734 C.3       11 UNK        -0.0865 
     18 CA        -71.7003   31.3738  -70.9505 C.3       10 UNK         0.0862 
     19 C         -71.0667   30.9903  -69.5755 C.2       10 UNK         0.5551 
     20 N         -69.8166   30.5454  -69.5317 N.am      10 UNK        -0.7319 
     21 O         -71.6974   31.1291  -68.5300 O.2       10 UNK        -0.5018 
     22 N         -71.0574   30.7556  -72.1294 N.am      10 UNK        -0.4509 
     23 C         -70.9761   29.4425  -72.3899 C.2       10 UNK         0.4899 
     24 O         -71.4188   28.5644  -71.6486 O.2       10 UNK        -0.4839 
     25 CA        -70.3045   29.0644  -73.7232 C.3       9 UNK         0.0222 
     26 CB        -69.3619   27.8501  -73.5860 C.3       9 UNK        -0.1966 
     27 N         -71.3008   28.8740  -74.7868 N.am      9 UNK        -0.4218 
     28 C         -72.2300   27.9101  -74.8993 C.2       9 UNK         0.5020 
     29 O         -72.3183   26.9340  -74.1527 O.2       9 UNK        -0.5274 
     30 CA        -73.2828   28.0780  -76.0130 C.3       8 UNK         0.0270 
     31 CB        -73.0263   29.2489  -76.9910 C.3       8 UNK        -0.1976 
     32 N         -73.5091   26.8237  -76.7336 N.am      8 UNK        -0.4313 
     33 C         -72.6523   26.1603  -77.5234 C.2       8 UNK         0.5041 
     34 O         -71.5094   26.5396  -77.7835 O.2       8 UNK        -0.5577 
     35 CA        -73.1688   24.8538  -78.1497 C.3       7 UNK         0.0284 
     36 CB        -72.9352   23.6679  -77.1989 C.3       7 UNK        -0.1958 
     37 N         -74.5945   24.9457  -78.4768 N.am      7 UNK        -0.4454 
     38 C         -75.0810   25.3731  -79.6506 C.2       7 UNK         0.5089 
     39 O         -74.3785   25.6393  -80.6264 O.2       7 UNK        -0.5125 
     40 CA        -76.6104   25.5388  -79.7632 C.3       6 UNK         0.0408 
     41 CB        -77.2500   24.2505  -80.3032 C.3       6 UNK        -0.1791 
     42 N         -77.2553   25.9058  -78.4989 N.am      6 UNK        -0.4762 
     43 C         -77.0743   27.0749  -77.8616 C.2       6 UNK         0.5007 
     44 O         -76.3992   27.9952  -78.3225 O.2       6 UNK        -0.5032 
     45 CA        -77.7044   27.2250  -76.4545 C.3       5 UNK         0.0783 
     46 C46       -79.0637   27.9724  -76.5184 C.3       11 UNK        -0.0857 
     47 S47       -78.8934   29.7685  -76.8162 S.3       11 UNK        -0.2512 
     48 C48       -79.0679   30.4716  -75.1437 C.3       11 UNK         0.0225 
     49 N         -77.8339   25.9471  -75.7361 N.am      5 UNK        -0.4615 
     50 C         -76.8459   25.0719  -75.4995 C.2       4 UNK         0.5053 
     51 O         -75.6703   25.2947  -75.7833 O.2       4 UNK        -0.5105 
     52 CA        -77.2165   23.6881  -74.9347 C.3       4 UNK         0.0263 
     53 CB        -76.7691   23.5349  -73.4762 C.3       4 UNK        -0.1981 
     54 N         -78.6384   23.3527  -75.0583 N.am      4 UNK        -0.4224 
     55 C         -79.2492   23.0896  -76.2236 C.2       3 UNK         0.4895 
     56 O         -78.6761   23.1034  -77.3138 O.2       3 UNK        -0.5091 
     57 CA        -80.7579   22.8085  -76.1667 C.3       3 UNK         0.0250 
     58 CB        -81.0458   21.4104  -75.5948 C.3       3 UNK        -0.1996 
     59 N         -81.4589   23.8274  -75.3842 N.am      3 UNK        -0.4254 
     60 C         -81.7083   25.0696  -75.8235 C.2       2 UNK         0.5004 
     61 O         -81.4476   25.4561  -76.9625 O.2       2 UNK        -0.5226 
     62 CA        -82.3434   26.0593  -74.8291 C.3       2 UNK         0.0269 
     63 CB        -83.8680   26.1055  -75.0195 C.3       2 UNK        -0.1926 
     64 N         -82.0416   25.7810  -73.4203 N.am      2 UNK        -0.4687 
     65 C         -80.8152   25.8105  -72.8776 C.2       1 UNK         0.5165 
     66 O         -79.7967   26.0277  -73.5335 O.2       1 UNK        -0.5079 
     67 H67       -82.1798   21.2553  -72.0892 H         1 UNK         0.0900 
     68 H68       -80.9939   21.0066  -70.8054 H         1 UNK         0.0900 
     69 H69       -82.4585   21.9379  -70.4851 H         1 UNK         0.0900 
     70 H70       -82.0773   24.1312  -70.4309 H         1 UNK         0.2959 
     71 H71       -81.3892   26.1831  -70.8711 H         1 UNK         0.1079 
     72 H72       -79.3759   25.2380  -69.6987 H         1 UNK         0.0837 
     73 H73       -78.6161   24.9477  -71.2218 H         1 UNK         0.0837 
     74 H74       -76.3681   27.0152  -71.1363 H         1 UNK         0.0685 
     75 H75       -77.3559   26.3887  -72.4338 H         1 UNK         0.0685 
     76 H76       -79.0702   28.4412  -73.3433 H         1 UNK         0.1434 
     77 H77       -76.5461   31.5051  -74.9486 H         1 UNK         0.1329 
     78 H78       -74.9930   28.7297  -72.0668 H         1 UNK         0.1335 
     79 H79       -74.1562   31.3268  -74.5891 H         1 UNK         0.0680 
     80 H80       -73.4874   30.1240  -73.5240 H         1 UNK         0.0680 
     81 H81       -73.6901   31.6358  -70.0578 H         1 UNK         0.1032 
     82 H82       -73.5487   30.1861  -71.0044 H         1 UNK         0.1032 
     83 H83       -71.4808   32.4386  -71.0379 H         1 UNK         0.0461 
     84 H84       -69.4065   30.3091  -68.6419 H         1 UNK         0.3453 
     85 H85       -69.2837   30.4373  -70.3795 H         1 UNK         0.3453 
     86 H86       -70.6561   31.4067  -72.7891 H         1 UNK         0.2984 
     87 H87       -69.6876   29.9081  -74.0372 H         1 UNK         0.0554 
     88 H88       -68.5655   28.0589  -72.8709 H         1 UNK         0.0847 
     89 H89       -68.8892   27.6056  -74.5372 H         1 UNK         0.0847 
     90 H90       -69.8820   26.9594  -73.2329 H         1 UNK         0.0847 
     91 H91       -71.3328   29.6128  -75.4755 H         1 UNK         0.3141 
     92 H92       -74.2220   28.2892  -75.4993 H         1 UNK         0.0743 
     93 H93       -73.0183   30.2090  -76.4749 H         1 UNK         0.0784 
     94 H94       -72.0788   29.1454  -77.5209 H         1 UNK         0.0784 
     95 H95       -73.8159   29.3039  -77.7411 H         1 UNK         0.0784 
     96 H96       -74.3715   26.3414  -76.4867 H         1 UNK         0.3213 
     97 H97       -72.5960   24.6707  -79.0617 H         1 UNK         0.0855 
     98 H98       -73.4640   23.7922  -76.2532 H         1 UNK         0.0814 
     99 H99       -71.8749   23.5616  -76.9656 H         1 UNK         0.0814 
    100 H100      -73.2641   22.7301  -77.6467 H         1 UNK         0.0814 
    101 H101      -75.2403   24.8053  -77.7087 H         1 UNK         0.3105 
    102 H102      -76.8034   26.3394  -80.4803 H         1 UNK         0.0547 
    103 H103      -78.3232   24.3708  -80.4520 H         1 UNK         0.0837 
    104 H104      -76.8186   23.9745  -81.2663 H         1 UNK         0.0837 
    105 H105      -77.0985   23.4094  -79.6252 H         1 UNK         0.0837 
    106 H106      -77.8203   25.1929  -78.0527 H         1 UNK         0.3020 
    107 H107      -77.0069   27.8261  -75.8672 H         1 UNK         0.1245 
    108 H108      -79.6169   27.8347  -75.5897 H         1 UNK         0.0781 
    109 H109      -79.7015   27.5497  -77.2970 H         1 UNK         0.0781 
    110 H110      -80.0350   30.1866  -74.7260 H         1 UNK         0.0836 
    111 H111      -79.0762   31.5602  -75.2154 H         1 UNK         0.0836 
    112 H112      -78.7518   25.7270  -75.3682 H         1 UNK         0.3022 
    113 H113      -76.6552   22.9591  -75.5233 H         1 UNK         0.0747 
    114 H114      -76.8728   22.5036  -73.1384 H         1 UNK         0.0793 
    115 H115      -75.7227   23.8168  -73.3497 H         1 UNK         0.0793 
    116 H116      -77.3622   24.1587  -72.8152 H         1 UNK         0.0793 
    117 H117      -79.1778   23.3174  -74.1956 H         1 UNK         0.3047 
    118 H118      -81.1401   22.8351  -77.1899 H         1 UNK         0.0822 
    119 H119      -80.5552   20.6399  -76.1912 H         1 UNK         0.0807 
    120 H120      -82.1138   21.1923  -75.6014 H         1 UNK         0.0807 
    121 H121      -80.6887   21.3028  -74.5706 H         1 UNK         0.0807 
    122 H122      -81.6691   23.6060  -74.4217 H         1 UNK         0.2946 
    123 H123      -81.9407   27.0472  -75.0631 H         1 UNK         0.1144 
    124 H124      -84.3236   26.8746  -74.3955 H         1 UNK         0.0793 
    125 H125      -84.3351   25.1510  -74.7738 H         1 UNK         0.0793 
    126 H126      -84.1253   26.3374  -76.0542 H         1 UNK         0.0793 
    127 H127      -82.8257   25.5563  -72.8245 H         1 UNK         0.2896 
@<TRIPOS>BOND
     1    1    2 1    
     2    1   67 1    
     3    1   68 1    
     4    1   69 1    
     5    2    3 2    
     6    2    4 am   BACKBONE|DICT|INTERRES
     7    4    5 1    
     8    4   70 1    
     9    5    6 1    
    10    5   65 1    
    11    5   71 1    
    12    6    7 1    
    13    6   72 1    
    14    6   73 1    
    15    7    8 1    
    16    8    9 1    
    17    8   74 1    
    18    8   75 1    
    19    9   10 ar   
    20    9   14 ar   
    21   10   11 ar   
    22   10   76 1    
    23   11   12 ar   
    24   11   48 1    
    25   12   13 ar   
    26   12   77 1    
    27   13   14 ar   
    28   13   15 1    
    29   14   78 1    
    30   15   16 1    
    31   15   79 1    
    32   15   80 1    
    33   16   17 1    
    34   17   18 1    
    35   17   81 1    
    36   17   82 1    
    37   18   19 1    
    38   18   22 1    
    39   18   83 1    
    40   19   20 am   BACKBONE|DICT|INTERRES
    41   19   21 2    
    42   20   84 1    
    43   20   85 1    
    44   22   23 am   BACKBONE|DICT|INTERRES
    45   22   86 1    
    46   23   24 2    
    47   23   25 1    
    48   25   26 1    
    49   25   27 1    
    50   25   87 1    
    51   26   88 1    
    52   26   89 1    
    53   26   90 1    
    54   27   28 am   BACKBONE|DICT|INTERRES
    55   27   91 1    
    56   28   29 2    
    57   28   30 1    
    58   30   31 1    
    59   30   32 1    
    60   30   92 1    
    61   31   93 1    
    62   31   94 1    
    63   31   95 1    
    64   32   33 am   BACKBONE|DICT|INTERRES
    65   32   96 1    
    66   33   34 2    
    67   33   35 1    
    68   35   36 1    
    69   35   37 1    
    70   35   97 1    
    71   36   98 1    
    72   36   99 1    
    73   36  100 1    
    74   37   38 am   BACKBONE|DICT|INTERRES
    75   37  101 1    
    76   38   39 2    
    77   38   40 1    
    78   40   41 1    
    79   40   42 1    
    80   40  102 1    
    81   41  103 1    
    82   41  104 1    
    83   41  105 1    
    84   42   43 am   BACKBONE|DICT|INTERRES
    85   42  106 1    
    86   43   44 2    
    87   43   45 1    
    88   45   46 1    
    89   45   49 1    
    90   45  107 1    
    91   46   47 1    
    92   46  108 1    
    93   46  109 1    
    94   47   48 1    
    95   48  110 1    
    96   48  111 1    
    97   49   50 am   BACKBONE|DICT|INTERRES
    98   49  112 1    
    99   50   51 2    
   100   50   52 1    
   101   52   53 1    
   102   52   54 1    
   103   52  113 1    
   104   53  114 1    
   105   53  115 1    
   106   53  116 1    
   107   54   55 am   BACKBONE|DICT|INTERRES
   108   54  117 1    
   109   55   56 2    
   110   55   57 1    
   111   57   58 1    
   112   57   59 1    
   113   57  118 1    
   114   58  119 1    
   115   58  120 1    
   116   58  121 1    
   117   59   60 am   BACKBONE|DICT|INTERRES
   118   59  122 1    
   119   60   61 2    
   120   60   62 1    
   121   62   63 1    
   122   62   64 1    
   123   62  123 1    
   124   63  124 1    
   125   63  125 1    
   126   63  126 1    
   127   64   65 am   BACKBONE|DICT|INTERRES
   128   64  127 1    
   129   65   66 2    
@<TRIPOS>SUBSTRUCTURE
     1 UNK         1 GROUP             0       ****    0 ROOT    
