@<TRIPOS>MOLECULE
3R135
127   129    1
SMALL
USER_CHARGES


@<TRIPOS>ATOM
      1 CA        -84.2098   27.8442  -71.3593 C.3       0 UNK        -0.1998 
      2 C         -83.6039   28.1186  -72.7275 C.2       0 UNK         0.4909 
      3 O         -84.3229   28.1168  -73.7270 O.2       0 UNK        -0.5240 
      4 N         -82.2868   28.3577  -72.7770 N.am      1 UNK        -0.4739 
      5 CA        -81.5267   28.6257  -74.0063 C.3       1 UNK         0.0864 
      6 C6        -80.1265   29.2174  -73.7110 C.3       11 UNK        -0.0881 
      7 S7        -80.2137   30.8361  -72.8704 S.3       11 UNK        -0.2682 
      8 C8        -80.0295   30.3893  -71.1126 C.3       11 UNK         0.0289 
      9 C9        -78.6347   29.8796  -70.7809 C.ar      11 UNK        -0.0687 
     10 C10       -78.4001   28.5115  -70.6014 C.ar      11 UNK        -0.0823 
     11 C11       -77.1235   28.0496  -70.2675 C.ar      11 UNK        -0.0830 
     12 C12       -76.0825   28.9679  -70.1018 C.ar      11 UNK        -0.1021 
     13 C13       -76.3010   30.3342  -70.2949 C.ar      11 UNK        -0.0753 
     14 C14       -77.5807   30.7850  -70.6284 C.ar      11 UNK        -0.0933 
     15 C15       -75.1577   31.3246  -70.1410 C.3       11 UNK         0.0166 
     16 S16       -74.4425   31.7832  -71.7510 S.3       11 UNK        -0.2615 
     17 C17       -73.6283   30.2243  -72.2680 C.3       11 UNK        -0.0865 
     18 CA        -74.2392   29.4014  -73.4591 C.3       10 UNK         0.0862 
     19 C         -75.5668   29.9230  -74.0857 C.2       10 UNK         0.5551 
     20 N         -75.5208   30.9312  -74.9473 N.am      10 UNK        -0.7319 
     21 O         -76.6340   29.3722  -73.8354 O.2       10 UNK        -0.5018 
     22 N         -73.2439   29.0466  -74.4851 N.am      10 UNK        -0.4509 
     23 C         -72.5120   29.8869  -75.2306 C.2       10 UNK         0.4899 
     24 O         -72.5526   31.1119  -75.1063 O.2       10 UNK        -0.4839 
     25 CA        -71.6203   29.2860  -76.3350 C.3       9 UNK         0.0222 
     26 CB        -70.2389   29.9708  -76.4151 C.3       9 UNK        -0.1966 
     27 N         -71.5031   27.8226  -76.2985 N.am      9 UNK        -0.4218 
     28 C         -70.8395   27.0581  -75.4153 C.2       9 UNK         0.5020 
     29 O         -70.1875   27.5124  -74.4743 O.2       9 UNK        -0.5274 
     30 CA        -70.9244   25.5278  -75.5993 C.3       8 UNK         0.0270 
     31 CB        -71.0787   24.8003  -74.2503 C.3       8 UNK        -0.1976 
     32 N         -72.0407   25.1475  -76.4680 N.am      8 UNK        -0.4313 
     33 C         -71.9486   24.8332  -77.7672 C.2       8 UNK         0.5041 
     34 O         -70.8806   24.7443  -78.3735 O.2       8 UNK        -0.5577 
     35 CA        -73.2661   24.6078  -78.5366 C.3       7 UNK         0.0284 
     36 CB        -73.5586   23.1037  -78.6587 C.3       7 UNK        -0.1958 
     37 N         -74.4299   25.2797  -77.9464 N.am      7 UNK        -0.4454 
     38 C         -74.5656   26.6054  -77.7954 C.2       7 UNK         0.5089 
     39 O         -73.7432   27.4233  -78.2063 O.2       7 UNK        -0.5125 
     40 CA        -75.7722   27.0986  -76.9749 C.3       6 UNK         0.0408 
     41 CB        -76.9973   27.3008  -77.8766 C.3       6 UNK        -0.1791 
     42 N         -76.1184   26.2137  -75.8560 N.am      6 UNK        -0.4762 
     43 C         -75.2901   25.8922  -74.8495 C.2       6 UNK         0.5007 
     44 O         -74.1343   26.3070  -74.7641 O.2       6 UNK        -0.5032 
     45 CA        -75.8084   24.8878  -73.8075 C.3       5 UNK         0.0783 
     46 C46       -76.6580   25.5696  -72.7006 C.3       11 UNK        -0.0857 
     47 S47       -75.6381   25.9096  -71.2284 S.3       11 UNK        -0.2512 
     48 C48       -76.8656   26.5648  -70.0541 C.3       11 UNK         0.0225 
     49 N         -76.5113   23.7894  -74.4735 N.am      5 UNK        -0.4615 
     50 C         -75.8920   22.7203  -74.9959 C.2       4 UNK         0.5053 
     51 O         -74.6812   22.5192  -74.9036 O.2       4 UNK        -0.5105 
     52 CA        -76.7561   21.7048  -75.7646 C.3       4 UNK         0.0263 
     53 CB        -77.2578   20.6025  -74.8184 C.3       4 UNK        -0.1981 
     54 N         -77.8983   22.3108  -76.4510 N.am      4 UNK        -0.4224 
     55 C         -77.8043   23.1932  -77.4556 C.2       3 UNK         0.4895 
     56 O         -76.7394   23.5686  -77.9430 O.2       3 UNK        -0.5091 
     57 CA        -79.1207   23.7995  -77.9678 C.3       3 UNK         0.0250 
     58 CB        -79.7212   22.9191  -79.0751 C.3       3 UNK        -0.1996 
     59 N         -80.1240   24.0257  -76.9210 N.am      3 UNK        -0.4254 
     60 C         -79.9450   24.7666  -75.8177 C.2       2 UNK         0.5004 
     61 O         -78.8736   25.2917  -75.5001 O.2       2 UNK        -0.5226 
     62 CA        -81.1570   24.8827  -74.8801 C.3       2 UNK         0.0269 
     63 CB        -81.0783   23.8074  -73.7839 C.3       2 UNK        -0.1926 
     64 N         -81.2603   26.1979  -74.2455 N.am      2 UNK        -0.4687 
     65 C         -81.4068   27.3668  -74.8888 C.2       1 UNK         0.5165 
     66 O         -81.4825   27.4750  -76.1139 O.2       1 UNK        -0.5079 
     67 H67       -84.9838   28.5786  -71.1381 H         1 UNK         0.0900 
     68 H68       -83.4644   27.8886  -70.5654 H         1 UNK         0.0900 
     69 H69       -84.6646   26.8541  -71.3425 H         1 UNK         0.0900 
     70 H70       -81.7533   28.3605  -71.9214 H         1 UNK         0.2959 
     71 H71       -82.0868   29.3625  -74.5872 H         1 UNK         0.1079 
     72 H72       -79.5170   28.5220  -73.1333 H         1 UNK         0.0837 
     73 H73       -79.5797   29.3751  -74.6431 H         1 UNK         0.0837 
     74 H74       -80.2375   31.2742  -70.5093 H         1 UNK         0.0685 
     75 H75       -80.7855   29.6561  -70.8325 H         1 UNK         0.0685 
     76 H76       -79.2121   27.8070  -70.7159 H         1 UNK         0.1434 
     77 H77       -75.0973   28.6117  -69.8342 H         1 UNK         0.1329 
     78 H78       -77.7558   31.8419  -70.7768 H         1 UNK         0.1335 
     79 H79       -75.5221   32.2276  -69.6489 H         1 UNK         0.0680 
     80 H80       -74.3775   30.9205  -69.4939 H         1 UNK         0.0680 
     81 H81       -73.5469   29.5712  -71.3993 H         1 UNK         0.1032 
     82 H82       -72.5920   30.4887  -72.4801 H         1 UNK         0.1032 
     83 H83       -74.5087   28.4346  -73.0302 H         1 UNK         0.0461 
     84 H84       -76.3689   31.2709  -75.3702 H         1 UNK         0.3453 
     85 H85       -74.6285   31.3650  -75.1462 H         1 UNK         0.3453 
     86 H86       -73.2068   28.0547  -74.6972 H         1 UNK         0.2984 
     87 H87       -72.1368   29.5050  -77.2704 H         1 UNK         0.0554 
     88 H88       -69.6265   29.5411  -77.2076 H         1 UNK         0.0847 
     89 H89       -69.6870   29.8863  -75.4787 H         1 UNK         0.0847 
     90 H90       -70.3427   31.0350  -76.6301 H         1 UNK         0.0847 
     91 H91       -72.0440   27.3510  -77.0158 H         1 UNK         0.3141 
     92 H92       -69.9801   25.2094  -76.0452 H         1 UNK         0.0743 
     93 H93       -71.9649   25.1332  -73.7091 H         1 UNK         0.0784 
     94 H94       -71.1572   23.7218  -74.3884 H         1 UNK         0.0784 
     95 H95       -70.2173   24.9804  -73.6060 H         1 UNK         0.0784 
     96 H96       -72.9619   25.2457  -76.0537 H         1 UNK         0.3213 
     97 H97       -73.1270   25.0132  -79.5410 H         1 UNK         0.0855 
     98 H98       -73.7613   22.6531  -77.6860 H         1 UNK         0.0814 
     99 H99       -72.7118   22.5727  -79.0959 H         1 UNK         0.0814 
    100 H100      -74.4206   22.9182  -79.2997 H         1 UNK         0.0814 
    101 H101      -75.2012   24.6815  -77.6589 H         1 UNK         0.3105 
    102 H102      -75.5053   28.0667  -76.5466 H         1 UNK         0.0547 
    103 H103      -76.7977   28.0575  -78.6363 H         1 UNK         0.0837 
    104 H104      -77.2657   26.3831  -78.3979 H         1 UNK         0.0837 
    105 H105      -77.8648   27.6330  -77.3055 H         1 UNK         0.0837 
    106 H106      -77.0673   25.8467  -75.8361 H         1 UNK         0.3020 
    107 H107      -74.9201   24.4575  -73.3377 H         1 UNK         0.1245 
    108 H108      -77.4725   24.9145  -72.3871 H         1 UNK         0.0781 
    109 H109      -77.1325   26.4928  -73.0428 H         1 UNK         0.0781 
    110 H110      -76.4901   26.4191  -69.0403 H         1 UNK         0.0836 
    111 H111      -77.7875   25.9855  -70.1233 H         1 UNK         0.0836 
    112 H112      -77.4961   23.9343  -74.6594 H         1 UNK         0.3022 
    113 H113      -76.1202   21.2429  -76.5231 H         1 UNK         0.0747 
    114 H114      -77.7989   19.8278  -75.3621 H         1 UNK         0.0793 
    115 H115      -76.4239   20.1160  -74.3101 H         1 UNK         0.0793 
    116 H116      -77.9209   21.0002  -74.0489 H         1 UNK         0.0793 
    117 H117      -78.8179   22.0626  -76.1173 H         1 UNK         0.3047 
    118 H118      -78.8869   24.7719  -78.4022 H         1 UNK         0.0822 
    119 H119      -80.5967   23.3878  -79.5250 H         1 UNK         0.0807 
    120 H120      -80.0198   21.9400  -78.6981 H         1 UNK         0.0807 
    121 H121      -78.9990   22.7534  -79.8760 H         1 UNK         0.0807 
    122 H122      -81.0333   23.6171  -77.0844 H         1 UNK         0.2946 
    123 H123      -82.0679   24.7293  -75.4630 H         1 UNK         0.1144 
    124 H124      -80.1924   23.9323  -73.1593 H         1 UNK         0.0793 
    125 H125      -81.0336   22.8068  -74.2162 H         1 UNK         0.0793 
    126 H126      -81.9536   23.8368  -73.1346 H         1 UNK         0.0793 
    127 H127      -81.2107   26.2169  -73.2383 H         1 UNK         0.2896 
@<TRIPOS>BOND
     1    1    2 1    
     2    1   67 1    
     3    1   68 1    
     4    1   69 1    
     5    2    3 2    
     6    2    4 am   BACKBONE|DICT|INTERRES
     7    4    5 1    
     8    4   70 1    
     9    5    6 1    
    10    5   65 1    
    11    5   71 1    
    12    6    7 1    
    13    6   72 1    
    14    6   73 1    
    15    7    8 1    
    16    8    9 1    
    17    8   74 1    
    18    8   75 1    
    19    9   10 ar   
    20    9   14 ar   
    21   10   11 ar   
    22   10   76 1    
    23   11   12 ar   
    24   11   48 1    
    25   12   13 ar   
    26   12   77 1    
    27   13   14 ar   
    28   13   15 1    
    29   14   78 1    
    30   15   16 1    
    31   15   79 1    
    32   15   80 1    
    33   16   17 1    
    34   17   18 1    
    35   17   81 1    
    36   17   82 1    
    37   18   19 1    
    38   18   22 1    
    39   18   83 1    
    40   19   20 am   BACKBONE|DICT|INTERRES
    41   19   21 2    
    42   20   84 1    
    43   20   85 1    
    44   22   23 am   BACKBONE|DICT|INTERRES
    45   22   86 1    
    46   23   24 2    
    47   23   25 1    
    48   25   26 1    
    49   25   27 1    
    50   25   87 1    
    51   26   88 1    
    52   26   89 1    
    53   26   90 1    
    54   27   28 am   BACKBONE|DICT|INTERRES
    55   27   91 1    
    56   28   29 2    
    57   28   30 1    
    58   30   31 1    
    59   30   32 1    
    60   30   92 1    
    61   31   93 1    
    62   31   94 1    
    63   31   95 1    
    64   32   33 am   BACKBONE|DICT|INTERRES
    65   32   96 1    
    66   33   34 2    
    67   33   35 1    
    68   35   36 1    
    69   35   37 1    
    70   35   97 1    
    71   36   98 1    
    72   36   99 1    
    73   36  100 1    
    74   37   38 am   BACKBONE|DICT|INTERRES
    75   37  101 1    
    76   38   39 2    
    77   38   40 1    
    78   40   41 1    
    79   40   42 1    
    80   40  102 1    
    81   41  103 1    
    82   41  104 1    
    83   41  105 1    
    84   42   43 am   BACKBONE|DICT|INTERRES
    85   42  106 1    
    86   43   44 2    
    87   43   45 1    
    88   45   46 1    
    89   45   49 1    
    90   45  107 1    
    91   46   47 1    
    92   46  108 1    
    93   46  109 1    
    94   47   48 1    
    95   48  110 1    
    96   48  111 1    
    97   49   50 am   BACKBONE|DICT|INTERRES
    98   49  112 1    
    99   50   51 2    
   100   50   52 1    
   101   52   53 1    
   102   52   54 1    
   103   52  113 1    
   104   53  114 1    
   105   53  115 1    
   106   53  116 1    
   107   54   55 am   BACKBONE|DICT|INTERRES
   108   54  117 1    
   109   55   56 2    
   110   55   57 1    
   111   57   58 1    
   112   57   59 1    
   113   57  118 1    
   114   58  119 1    
   115   58  120 1    
   116   58  121 1    
   117   59   60 am   BACKBONE|DICT|INTERRES
   118   59  122 1    
   119   60   61 2    
   120   60   62 1    
   121   62   63 1    
   122   62   64 1    
   123   62  123 1    
   124   63  124 1    
   125   63  125 1    
   126   63  126 1    
   127   64   65 am   BACKBONE|DICT|INTERRES
   128   64  127 1    
   129   65   66 2    
@<TRIPOS>SUBSTRUCTURE
     1 UNK         1 GROUP             0       ****    0 ROOT    
