@<TRIPOS>MOLECULE
3R135
127   129    1
SMALL
USER_CHARGES


@<TRIPOS>ATOM
      1 CA        -77.5461   27.0028  -78.2340 C.3       0 UNK        -0.1998 
      2 C         -78.3768   26.7860  -76.9788 C.2       0 UNK         0.4909 
      3 O         -78.6816   25.6413  -76.6476 O.2       0 UNK        -0.5240 
      4 N         -78.7499   27.8771  -76.2926 N.am      1 UNK        -0.4739 
      5 CA        -79.5287   27.9087  -75.0471 C.3       1 UNK         0.0864 
      6 C6        -79.8046   29.3757  -74.6215 C.3       11 UNK        -0.0881 
      7 S7        -80.5747   29.5388  -72.9715 S.3       11 UNK        -0.2682 
      8 C8        -79.1747   30.0869  -71.9418 C.3       11 UNK         0.0289 
      9 C9        -78.0618   29.0506  -71.8915 C.ar      11 UNK        -0.0687 
     10 C10       -78.3112   27.7772  -71.3692 C.ar      11 UNK        -0.0823 
     11 C11       -77.3074   26.8055  -71.3605 C.ar      11 UNK        -0.0830 
     12 C12       -76.0347   27.1286  -71.8391 C.ar      11 UNK        -0.1021 
     13 C13       -75.7722   28.3991  -72.3564 C.ar      11 UNK        -0.0753 
     14 C14       -76.7884   29.3581  -72.3819 C.ar      11 UNK        -0.0933 
     15 C15       -74.4013   28.7094  -72.9294 C.3       11 UNK         0.0166 
     16 S16       -73.2154   29.1843  -71.6401 S.3       11 UNK        -0.2615 
     17 C17       -71.6288   28.9146  -72.5033 C.3       11 UNK        -0.0865 
     18 CA        -70.9464   30.2286  -72.9674 C.3       10 UNK         0.0862 
     19 C         -69.4442   29.9767  -73.2947 C.2       10 UNK         0.5551 
     20 N         -69.0026   30.0946  -74.5416 N.am      10 UNK        -0.7319 
     21 O         -68.6637   29.6752  -72.3950 O.2       10 UNK        -0.5018 
     22 N         -71.6886   30.8875  -74.0583 N.am      10 UNK        -0.4509 
     23 C         -71.5826   32.1922  -74.3547 C.2       10 UNK         0.4899 
     24 O         -70.9456   32.9923  -73.6682 O.2       10 UNK        -0.4839 
     25 CA        -72.2611   32.7122  -75.6393 C.3       9 UNK         0.0222 
     26 CB        -71.2053   33.0052  -76.7189 C.3       9 UNK        -0.1966 
     27 N         -73.2638   31.8037  -76.1962 N.am      9 UNK        -0.4218 
     28 C         -74.4775   31.5909  -75.6745 C.2       9 UNK         0.5020 
     29 O         -74.9227   32.2100  -74.7074 O.2       9 UNK        -0.5274 
     30 CA        -75.3527   30.5015  -76.3265 C.3       8 UNK         0.0270 
     31 CB        -76.4209   31.1528  -77.2214 C.3       8 UNK        -0.1976 
     32 N         -74.6636   29.4508  -77.0944 N.am      8 UNK        -0.4313 
     33 C         -73.6416   28.6849  -76.6847 C.2       8 UNK         0.5041 
     34 O         -72.9410   28.9210  -75.6992 O.2       8 UNK        -0.5577 
     35 CA        -73.3421   27.4317  -77.5253 C.3       7 UNK         0.0284 
     36 CB        -72.0984   27.6591  -78.3992 C.3       7 UNK        -0.1958 
     37 N         -73.1348   26.2480  -76.6812 N.am      7 UNK        -0.4454 
     38 C         -74.0179   25.7722  -75.7903 C.2       7 UNK         0.5089 
     39 O         -75.1445   26.2466  -75.6252 O.2       7 UNK        -0.5125 
     40 CA        -73.5449   24.5846  -74.9250 C.3       6 UNK         0.0408 
     41 CB        -72.4339   25.0239  -73.9537 C.3       6 UNK        -0.1791 
     42 N         -74.6446   24.0143  -74.1416 N.am      6 UNK        -0.4762 
     43 C         -75.6527   23.2915  -74.6474 C.2       6 UNK         0.5007 
     44 O         -75.6663   22.8414  -75.7972 O.2       6 UNK        -0.5032 
     45 CA        -76.8592   23.0833  -73.7136 C.3       5 UNK         0.0783 
     46 C46       -77.6362   24.4174  -73.5367 C.3       11 UNK        -0.0857 
     47 S47       -78.6641   24.4748  -72.0325 S.3       11 UNK        -0.2512 
     48 C48       -77.6064   25.3971  -70.8668 C.3       11 UNK         0.0225 
     49 N         -77.7143   22.0549  -74.2966 N.am      5 UNK        -0.4615 
     50 C         -78.4800   21.1796  -73.6416 C.2       4 UNK         0.5053 
     51 O         -78.4510   21.0249  -72.4198 O.2       4 UNK        -0.5105 
     52 CA        -79.4770   20.3800  -74.5062 C.3       4 UNK         0.0263 
     53 CB        -80.4371   19.5182  -73.6655 C.3       4 UNK        -0.1981 
     54 N         -80.2670   21.2902  -75.3412 N.am      4 UNK        -0.4224 
     55 C         -79.8852   21.7967  -76.5196 C.2       3 UNK         0.4895 
     56 O         -78.8652   21.4394  -77.1092 O.2       3 UNK        -0.5091 
     57 CA        -80.7308   22.9371  -77.1097 C.3       3 UNK         0.0250 
     58 CB        -81.9576   22.4008  -77.8735 C.3       3 UNK        -0.1996 
     59 N         -81.0888   23.9792  -76.1335 N.am      3 UNK        -0.4254 
     60 C         -81.9562   23.9167  -75.1109 C.2       2 UNK         0.5004 
     61 O         -82.5868   22.8967  -74.8272 O.2       2 UNK        -0.5226 
     62 CA        -82.1378   25.1765  -74.2376 C.3       2 UNK         0.0269 
     63 CB        -82.4215   24.8164  -72.7673 C.3       2 UNK        -0.1926 
     64 N         -80.9867   26.0827  -74.2849 N.am      2 UNK        -0.4687 
     65 C         -80.8331   27.0858  -75.1596 C.2       1 UNK         0.5165 
     66 O         -81.6536   27.3601  -76.0384 O.2       1 UNK        -0.5079 
     67 H67       -77.3692   28.0587  -78.4331 H         1 UNK         0.0900 
     68 H68       -78.0550   26.5750  -79.0973 H         1 UNK         0.0900 
     69 H69       -76.5823   26.5062  -78.1268 H         1 UNK         0.0900 
     70 H70       -78.4923   28.7823  -76.6545 H         1 UNK         0.2959 
     71 H71       -78.8962   27.4483  -74.2848 H         1 UNK         0.1079 
     72 H72       -78.8745   29.9465  -74.6288 H         1 UNK         0.0837 
     73 H73       -80.4554   29.8656  -75.3485 H         1 UNK         0.0837 
     74 H74       -78.8063   31.0424  -72.3186 H         1 UNK         0.0685 
     75 H75       -79.5329   30.2728  -70.9284 H         1 UNK         0.0685 
     76 H76       -79.2986   27.5317  -71.0019 H         1 UNK         0.1434 
     77 H77       -75.2500   26.3852  -71.8344 H         1 UNK         0.1329 
     78 H78       -76.5879   30.3385  -72.7929 H         1 UNK         0.1335 
     79 H79       -74.0394   27.8385  -73.4752 H         1 UNK         0.0680 
     80 H80       -74.4680   29.5221  -73.6491 H         1 UNK         0.0680 
     81 H81       -71.7602   28.2358  -73.3475 H         1 UNK         0.1032 
     82 H82       -70.9888   28.3808  -71.7977 H         1 UNK         0.1032 
     83 H83       -70.9465   30.9075  -72.1122 H         1 UNK         0.0461 
     84 H84       -68.0277   29.9334  -74.7393 H         1 UNK         0.3453 
     85 H85       -69.6393   30.3294  -75.2851 H         1 UNK         0.3453 
     86 H86       -72.2130   30.2691  -74.6755 H         1 UNK         0.2984 
     87 H87       -72.7556   33.6525  -75.3865 H         1 UNK         0.0554 
     88 H88       -71.6561   33.4540  -77.6042 H         1 UNK         0.0847 
     89 H89       -70.4539   33.7060  -76.3518 H         1 UNK         0.0847 
     90 H90       -70.6813   32.1006  -77.0299 H         1 UNK         0.0847 
     91 H91       -72.9779   31.2236  -76.9713 H         1 UNK         0.3141 
     92 H92       -75.8710   29.9925  -75.5116 H         1 UNK         0.0743 
     93 H93       -77.1429   30.4228  -77.5852 H         1 UNK         0.0784 
     94 H94       -76.9831   31.9105  -76.6730 H         1 UNK         0.0784 
     95 H95       -75.9740   31.6438  -78.0868 H         1 UNK         0.0784 
     96 H96       -75.1121   29.1927  -77.9609 H         1 UNK         0.3213 
     97 H97       -74.1936   27.2252  -78.1761 H         1 UNK         0.0855 
     98 H98       -72.2341   28.5186  -79.0572 H         1 UNK         0.0814 
     99 H99       -71.8942   26.7968  -79.0342 H         1 UNK         0.0814 
    100 H100      -71.2107   27.8498  -77.7943 H         1 UNK         0.0814 
    101 H101      -72.2242   25.8160  -76.7337 H         1 UNK         0.3105 
    102 H102      -73.1493   23.8136  -75.5894 H         1 UNK         0.0547 
    103 H103      -71.5761   25.4357  -74.4866 H         1 UNK         0.0837 
    104 H104      -72.7813   25.7895  -73.2594 H         1 UNK         0.0837 
    105 H105      -72.0682   24.1823  -73.3653 H         1 UNK         0.0837 
    106 H106      -74.7279   24.3536  -73.1953 H         1 UNK         0.3020 
    107 H107      -76.4748   22.7374  -72.7512 H         1 UNK         0.1245 
    108 H108      -78.2984   24.5724  -74.3877 H         1 UNK         0.0781 
    109 H109      -76.9733   25.2817  -73.5465 H         1 UNK         0.0781 
    110 H110      -76.6847   24.8380  -70.6988 H         1 UNK         0.0836 
    111 H111      -78.1095   25.4525  -69.9005 H         1 UNK         0.0836 
    112 H112      -77.7325   22.0560  -75.3112 H         1 UNK         0.3022 
    113 H113      -78.8953   19.7115  -75.1444 H         1 UNK         0.0747 
    114 H114      -81.1156   18.9479  -74.3000 H         1 UNK         0.0793 
    115 H115      -79.8869   18.8013  -73.0545 H         1 UNK         0.0793 
    116 H116      -81.0410   20.1281  -72.9922 H         1 UNK         0.0793 
    117 H117      -81.1143   21.6751  -74.9309 H         1 UNK         0.3047 
    118 H118      -80.0953   23.4426  -77.8391 H         1 UNK         0.0822 
    119 H119      -82.5247   23.2113  -78.3312 H         1 UNK         0.0807 
    120 H120      -82.6339   21.8403  -77.2277 H         1 UNK         0.0807 
    121 H121      -81.6491   21.7283  -78.6750 H         1 UNK         0.0807 
    122 H122      -80.5421   24.8296  -76.2285 H         1 UNK         0.2946 
    123 H123      -83.0178   25.6954  -74.6249 H         1 UNK         0.1144 
    124 H124      -82.5267   25.7097  -72.1513 H         1 UNK         0.0793 
    125 H125      -81.6266   24.2046  -72.3403 H         1 UNK         0.0793 
    126 H126      -83.3502   24.2520  -72.6736 H         1 UNK         0.0793 
    127 H127      -80.2532   25.8991  -73.6133 H         1 UNK         0.2896 
@<TRIPOS>BOND
     1    1    2 1    
     2    1   67 1    
     3    1   68 1    
     4    1   69 1    
     5    2    3 2    
     6    2    4 am   BACKBONE|DICT|INTERRES
     7    4    5 1    
     8    4   70 1    
     9    5    6 1    
    10    5   65 1    
    11    5   71 1    
    12    6    7 1    
    13    6   72 1    
    14    6   73 1    
    15    7    8 1    
    16    8    9 1    
    17    8   74 1    
    18    8   75 1    
    19    9   10 ar   
    20    9   14 ar   
    21   10   11 ar   
    22   10   76 1    
    23   11   12 ar   
    24   11   48 1    
    25   12   13 ar   
    26   12   77 1    
    27   13   14 ar   
    28   13   15 1    
    29   14   78 1    
    30   15   16 1    
    31   15   79 1    
    32   15   80 1    
    33   16   17 1    
    34   17   18 1    
    35   17   81 1    
    36   17   82 1    
    37   18   19 1    
    38   18   22 1    
    39   18   83 1    
    40   19   20 am   BACKBONE|DICT|INTERRES
    41   19   21 2    
    42   20   84 1    
    43   20   85 1    
    44   22   23 am   BACKBONE|DICT|INTERRES
    45   22   86 1    
    46   23   24 2    
    47   23   25 1    
    48   25   26 1    
    49   25   27 1    
    50   25   87 1    
    51   26   88 1    
    52   26   89 1    
    53   26   90 1    
    54   27   28 am   BACKBONE|DICT|INTERRES
    55   27   91 1    
    56   28   29 2    
    57   28   30 1    
    58   30   31 1    
    59   30   32 1    
    60   30   92 1    
    61   31   93 1    
    62   31   94 1    
    63   31   95 1    
    64   32   33 am   BACKBONE|DICT|INTERRES
    65   32   96 1    
    66   33   34 2    
    67   33   35 1    
    68   35   36 1    
    69   35   37 1    
    70   35   97 1    
    71   36   98 1    
    72   36   99 1    
    73   36  100 1    
    74   37   38 am   BACKBONE|DICT|INTERRES
    75   37  101 1    
    76   38   39 2    
    77   38   40 1    
    78   40   41 1    
    79   40   42 1    
    80   40  102 1    
    81   41  103 1    
    82   41  104 1    
    83   41  105 1    
    84   42   43 am   BACKBONE|DICT|INTERRES
    85   42  106 1    
    86   43   44 2    
    87   43   45 1    
    88   45   46 1    
    89   45   49 1    
    90   45  107 1    
    91   46   47 1    
    92   46  108 1    
    93   46  109 1    
    94   47   48 1    
    95   48  110 1    
    96   48  111 1    
    97   49   50 am   BACKBONE|DICT|INTERRES
    98   49  112 1    
    99   50   51 2    
   100   50   52 1    
   101   52   53 1    
   102   52   54 1    
   103   52  113 1    
   104   53  114 1    
   105   53  115 1    
   106   53  116 1    
   107   54   55 am   BACKBONE|DICT|INTERRES
   108   54  117 1    
   109   55   56 2    
   110   55   57 1    
   111   57   58 1    
   112   57   59 1    
   113   57  118 1    
   114   58  119 1    
   115   58  120 1    
   116   58  121 1    
   117   59   60 am   BACKBONE|DICT|INTERRES
   118   59  122 1    
   119   60   61 2    
   120   60   62 1    
   121   62   63 1    
   122   62   64 1    
   123   62  123 1    
   124   63  124 1    
   125   63  125 1    
   126   63  126 1    
   127   64   65 am   BACKBONE|DICT|INTERRES
   128   64  127 1    
   129   65   66 2    
@<TRIPOS>SUBSTRUCTURE
     1 UNK         1 GROUP             0       ****    0 ROOT    
