@<TRIPOS>MOLECULE
3R135
127   129    1
SMALL
USER_CHARGES


@<TRIPOS>ATOM
      1 CA        -84.2479   25.9470  -72.0093 C.3       0 UNK        -0.1998 
      2 C         -83.7211   27.3204  -72.4193 C.2       0 UNK         0.4909 
      3 O         -84.5052   28.2646  -72.4887 O.2       0 UNK        -0.5240 
      4 N         -82.4202   27.5017  -72.6988 N.am      1 UNK        -0.4739 
      5 CA        -81.3323   26.5090  -72.7057 C.3       1 UNK         0.0864 
      6 C6        -81.0813   25.8590  -71.3133 C.3       11 UNK        -0.0881 
      7 S7        -79.3109   25.6517  -70.9093 S.3       11 UNK        -0.2682 
      8 C8        -78.9082   27.1892  -70.0122 C.3       11 UNK         0.0289 
      9 C9        -78.0756   28.1246  -70.8768 C.ar      11 UNK        -0.0687 
     10 C10       -78.6964   28.9453  -71.8215 C.ar      11 UNK        -0.0823 
     11 C11       -77.9351   29.7491  -72.6731 C.ar      11 UNK        -0.0830 
     12 C12       -76.5459   29.7800  -72.5301 C.ar      11 UNK        -0.1021 
     13 C13       -75.9131   28.9907  -71.5664 C.ar      11 UNK        -0.0753 
     14 C14       -76.6824   28.1561  -70.7484 C.ar      11 UNK        -0.0933 
     15 C15       -74.3970   29.0062  -71.4521 C.3       11 UNK         0.0166 
     16 S16       -73.7582   30.6562  -71.0234 S.3       11 UNK        -0.2615 
     17 C17       -71.9594   30.3531  -71.0794 C.3       11 UNK        -0.0865 
     18 CA        -71.2962   30.8005  -72.4104 C.3       10 UNK         0.0862 
     19 C         -69.7469   30.6725  -72.3015 C.2       10 UNK         0.5551 
     20 N         -69.1077   29.7099  -72.9574 N.am      10 UNK        -0.7319 
     21 O         -69.1167   31.4641  -71.6048 O.2       10 UNK        -0.5018 
     22 N         -71.8782   30.1057  -73.5696 N.am      10 UNK        -0.4509 
     23 C         -71.6696   30.4219  -74.8542 C.2       10 UNK         0.4899 
     24 O         -71.0904   31.4478  -75.2148 O.2       10 UNK        -0.4839 
     25 CA        -72.1848   29.4225  -75.9158 C.3       9 UNK         0.0222 
     26 CB        -71.2644   29.3631  -77.1523 C.3       9 UNK        -0.1966 
     27 N         -72.4439   28.0617  -75.4159 N.am      9 UNK        -0.4218 
     28 C         -71.5775   27.2424  -74.7961 C.2       9 UNK         0.5020 
     29 O         -70.4148   27.5487  -74.5262 O.2       9 UNK        -0.5274 
     30 CA        -72.1027   25.8667  -74.3611 C.3       8 UNK         0.0270 
     31 CB        -72.8760   25.9719  -73.0372 C.3       8 UNK        -0.1976 
     32 N         -72.9378   25.2249  -75.3787 N.am      8 UNK        -0.4313 
     33 C         -72.4396   24.6280  -76.4719 C.2       8 UNK         0.5041 
     34 O         -71.2372   24.5766  -76.7359 O.2       8 UNK        -0.5577 
     35 CA        -73.4391   23.9539  -77.4256 C.3       7 UNK         0.0284 
     36 CB        -73.9295   22.6189  -76.8432 C.3       7 UNK        -0.1958 
     37 N         -74.5820   24.8059  -77.7550 N.am      7 UNK        -0.4454 
     38 C         -74.5031   25.9206  -78.4959 C.2       7 UNK         0.5089 
     39 O         -73.4615   26.3404  -79.0007 O.2       7 UNK        -0.5125 
     40 CA        -75.8076   26.7080  -78.7074 C.3       6 UNK         0.0408 
     41 CB        -76.6228   26.1113  -79.8656 C.3       6 UNK        -0.1791 
     42 N         -76.6417   26.7752  -77.5066 N.am      6 UNK        -0.4762 
     43 C         -76.2857   27.3769  -76.3617 C.2       6 UNK         0.5007 
     44 O         -75.2021   27.9322  -76.1787 O.2       6 UNK        -0.5032 
     45 CA        -77.2972   27.2801  -75.2048 C.3       5 UNK         0.0783 
     46 C46       -78.5162   28.2190  -75.4208 C.3       11 UNK        -0.0857 
     47 S47       -78.0863   29.9971  -75.4314 S.3       11 UNK        -0.2512 
     48 C48       -78.6083   30.5527  -73.7747 C.3       11 UNK         0.0225 
     49 N         -77.6944   25.8815  -74.9974 N.am      5 UNK        -0.4615 
     50 C         -76.8482   24.9076  -74.6197 C.2       4 UNK         0.5053 
     51 O         -75.6671   25.1032  -74.3375 O.2       4 UNK        -0.5105 
     52 CA        -77.3669   23.4595  -74.6191 C.3       4 UNK         0.0263 
     53 CB        -77.8288   23.0317  -73.2194 C.3       4 UNK        -0.1981 
     54 N         -78.4294   23.2293  -75.5989 N.am      4 UNK        -0.4224 
     55 C         -78.2311   23.2443  -76.9262 C.2       3 UNK         0.4895 
     56 O         -77.1299   23.4234  -77.4468 O.2       3 UNK        -0.5091 
     57 CA        -79.4649   23.0765  -77.8312 C.3       3 UNK         0.0250 
     58 CB        -79.6558   21.5993  -78.2087 C.3       3 UNK        -0.1996 
     59 N         -80.7073   23.5971  -77.2505 N.am      3 UNK        -0.4254 
     60 C         -80.9049   24.8711  -76.8840 C.2       2 UNK         0.5004 
     61 O         -80.0475   25.7487  -77.0013 O.2       2 UNK        -0.5226 
     62 CA        -82.2608   25.2370  -76.2490 C.3       2 UNK         0.0269 
     63 CB        -83.2258   24.0433  -76.0589 C.3       2 UNK        -0.1926 
     64 N         -82.0755   25.9565  -74.9824 N.am      2 UNK        -0.4687 
     65 C         -81.4306   25.5169  -73.8889 C.2       1 UNK         0.5165 
     66 O         -80.9313   24.3952  -73.8031 O.2       1 UNK        -0.5079 
     67 H67       -83.9173   25.1605  -72.6850 H         1 UNK         0.0900 
     68 H68       -83.9310   25.7006  -70.9969 H         1 UNK         0.0900 
     69 H69       -85.3377   25.9432  -72.0212 H         1 UNK         0.0900 
     70 H70       -82.1368   28.4355  -72.9616 H         1 UNK         0.2959 
     71 H71       -80.4443   27.0862  -72.9501 H         1 UNK         0.1079 
     72 H72       -81.5349   26.4572  -70.5221 H         1 UNK         0.0837 
     73 H73       -81.5650   24.8831  -71.2412 H         1 UNK         0.0837 
     74 H74       -79.8134   27.6964  -69.6765 H         1 UNK         0.0685 
     75 H75       -78.3577   26.9282  -69.1072 H         1 UNK         0.0685 
     76 H76       -79.7728   28.9382  -71.9089 H         1 UNK         0.1434 
     77 H77       -75.9529   30.4026  -73.1867 H         1 UNK         0.1329 
     78 H78       -76.1975   27.5213  -70.0195 H         1 UNK         0.1335 
     79 H79       -73.9797   28.7013  -72.4102 H         1 UNK         0.0680 
     80 H80       -74.0543   28.2821  -70.7112 H         1 UNK         0.0680 
     81 H81       -71.7561   29.2986  -70.8825 H         1 UNK         0.1032 
     82 H82       -71.5209   30.8985  -70.2410 H         1 UNK         0.1032 
     83 H83       -71.5047   31.8641  -72.5420 H         1 UNK         0.0461 
     84 H84       -69.6144   29.0386  -73.5269 H         1 UNK         0.3453 
     85 H85       -68.1059   29.6418  -72.8780 H         1 UNK         0.3453 
     86 H86       -72.3600   29.2439  -73.3732 H         1 UNK         0.2984 
     87 H87       -73.1507   29.8092  -76.2431 H         1 UNK         0.0554 
     88 H88       -71.1743   30.3414  -77.6259 H         1 UNK         0.0847 
     89 H89       -71.6567   28.6771  -77.9037 H         1 UNK         0.0847 
     90 H90       -70.2585   29.0336  -76.8901 H         1 UNK         0.0847 
     91 H91       -73.3930   27.7339  -75.5843 H         1 UNK         0.3141 
     92 H92       -71.2333   25.2302  -74.1806 H         1 UNK         0.0743 
     93 H93       -73.8004   26.5365  -73.1544 H         1 UNK         0.0784 
     94 H94       -73.1408   24.9849  -72.6576 H         1 UNK         0.0784 
     95 H95       -72.2794   26.4655  -72.2688 H         1 UNK         0.0784 
     96 H96       -73.9401   25.2040  -75.2035 H         1 UNK         0.3213 
     97 H97       -72.9117   23.7369  -78.3572 H         1 UNK         0.0855 
     98 H98       -74.4485   22.7586  -75.8957 H         1 UNK         0.0814 
     99 H99       -73.0920   21.9451  -76.6579 H         1 UNK         0.0814 
    100 H100      -74.6091   22.1108  -77.5277 H         1 UNK         0.0814 
    101 H101      -75.4985   24.4887  -77.4503 H         1 UNK         0.3105 
    102 H102      -75.5358   27.7310  -78.9758 H         1 UNK         0.0547 
    103 H103      -77.5090   26.7094  -80.0776 H         1 UNK         0.0837 
    104 H104      -76.9486   25.0930  -79.6504 H         1 UNK         0.0837 
    105 H105      -76.0302   26.0763  -80.7808 H         1 UNK         0.0837 
    106 H106      -77.5428   26.3174  -77.5477 H         1 UNK         0.3020 
    107 H107      -76.7791   27.5973  -74.2974 H         1 UNK         0.1245 
    108 H108      -79.2649   28.0457  -74.6503 H         1 UNK         0.0781 
    109 H109      -79.0127   27.9983  -76.3661 H         1 UNK         0.0781 
    110 H110      -79.6950   30.4876  -73.7029 H         1 UNK         0.0836 
    111 H111      -78.3547   31.6071  -73.6564 H         1 UNK         0.0836 
    112 H112      -78.6270   25.6275  -75.2966 H         1 UNK         0.3022 
    113 H113      -76.5278   22.8170  -74.8898 H         1 UNK         0.0747 
    114 H114      -78.1002   21.9764  -73.1958 H         1 UNK         0.0793 
    115 H115      -77.0359   23.1799  -72.4850 H         1 UNK         0.0793 
    116 H116      -78.6898   23.6056  -72.8839 H         1 UNK         0.0793 
    117 H117      -79.3697   23.1242  -75.2404 H         1 UNK         0.3047 
    118 H118      -79.2704   23.6407  -78.7459 H         1 UNK         0.0822 
    119 H119      -80.4631   21.4742  -78.9306 H         1 UNK         0.0807 
    120 H120      -79.8847   20.9850  -77.3368 H         1 UNK         0.0807 
    121 H121      -78.7513   21.1936  -78.6646 H         1 UNK         0.0807 
    122 H122      -81.4557   22.9345  -77.1068 H         1 UNK         0.2946 
    123 H123      -82.7322   25.9372  -76.9407 H         1 UNK         0.1144 
    124 H124      -82.8139   23.2765  -75.4015 H         1 UNK         0.0793 
    125 H125      -83.4683   23.5725  -77.0125 H         1 UNK         0.0793 
    126 H126      -84.1692   24.3728  -75.6233 H         1 UNK         0.0793 
    127 H127      -82.4338   26.9014  -74.9636 H         1 UNK         0.2896 
@<TRIPOS>BOND
     1    1    2 1    
     2    1   67 1    
     3    1   68 1    
     4    1   69 1    
     5    2    3 2    
     6    2    4 am   BACKBONE|DICT|INTERRES
     7    4    5 1    
     8    4   70 1    
     9    5    6 1    
    10    5   65 1    
    11    5   71 1    
    12    6    7 1    
    13    6   72 1    
    14    6   73 1    
    15    7    8 1    
    16    8    9 1    
    17    8   74 1    
    18    8   75 1    
    19    9   10 ar   
    20    9   14 ar   
    21   10   11 ar   
    22   10   76 1    
    23   11   12 ar   
    24   11   48 1    
    25   12   13 ar   
    26   12   77 1    
    27   13   14 ar   
    28   13   15 1    
    29   14   78 1    
    30   15   16 1    
    31   15   79 1    
    32   15   80 1    
    33   16   17 1    
    34   17   18 1    
    35   17   81 1    
    36   17   82 1    
    37   18   19 1    
    38   18   22 1    
    39   18   83 1    
    40   19   20 am   BACKBONE|DICT|INTERRES
    41   19   21 2    
    42   20   84 1    
    43   20   85 1    
    44   22   23 am   BACKBONE|DICT|INTERRES
    45   22   86 1    
    46   23   24 2    
    47   23   25 1    
    48   25   26 1    
    49   25   27 1    
    50   25   87 1    
    51   26   88 1    
    52   26   89 1    
    53   26   90 1    
    54   27   28 am   BACKBONE|DICT|INTERRES
    55   27   91 1    
    56   28   29 2    
    57   28   30 1    
    58   30   31 1    
    59   30   32 1    
    60   30   92 1    
    61   31   93 1    
    62   31   94 1    
    63   31   95 1    
    64   32   33 am   BACKBONE|DICT|INTERRES
    65   32   96 1    
    66   33   34 2    
    67   33   35 1    
    68   35   36 1    
    69   35   37 1    
    70   35   97 1    
    71   36   98 1    
    72   36   99 1    
    73   36  100 1    
    74   37   38 am   BACKBONE|DICT|INTERRES
    75   37  101 1    
    76   38   39 2    
    77   38   40 1    
    78   40   41 1    
    79   40   42 1    
    80   40  102 1    
    81   41  103 1    
    82   41  104 1    
    83   41  105 1    
    84   42   43 am   BACKBONE|DICT|INTERRES
    85   42  106 1    
    86   43   44 2    
    87   43   45 1    
    88   45   46 1    
    89   45   49 1    
    90   45  107 1    
    91   46   47 1    
    92   46  108 1    
    93   46  109 1    
    94   47   48 1    
    95   48  110 1    
    96   48  111 1    
    97   49   50 am   BACKBONE|DICT|INTERRES
    98   49  112 1    
    99   50   51 2    
   100   50   52 1    
   101   52   53 1    
   102   52   54 1    
   103   52  113 1    
   104   53  114 1    
   105   53  115 1    
   106   53  116 1    
   107   54   55 am   BACKBONE|DICT|INTERRES
   108   54  117 1    
   109   55   56 2    
   110   55   57 1    
   111   57   58 1    
   112   57   59 1    
   113   57  118 1    
   114   58  119 1    
   115   58  120 1    
   116   58  121 1    
   117   59   60 am   BACKBONE|DICT|INTERRES
   118   59  122 1    
   119   60   61 2    
   120   60   62 1    
   121   62   63 1    
   122   62   64 1    
   123   62  123 1    
   124   63  124 1    
   125   63  125 1    
   126   63  126 1    
   127   64   65 am   BACKBONE|DICT|INTERRES
   128   64  127 1    
   129   65   66 2    
@<TRIPOS>SUBSTRUCTURE
     1 UNK         1 GROUP             0       ****    0 ROOT    
