@<TRIPOS>MOLECULE
3R135
127   129    1
SMALL
USER_CHARGES


@<TRIPOS>ATOM
      1 CA        -84.0027   27.3229  -70.7801 C.3       0 UNK        -0.1998 
      2 C         -82.8637   27.3517  -71.7873 C.2       0 UNK         0.4909 
      3 O         -81.8065   26.7784  -71.5240 O.2       0 UNK        -0.5240 
      4 N         -83.0753   28.0178  -72.9319 N.am      1 UNK        -0.4739 
      5 CA        -82.1562   28.1948  -74.0705 C.3       1 UNK         0.0864 
      6 C6        -80.8130   28.8885  -73.7180 C.3       11 UNK        -0.0881 
      7 S7        -81.0440   30.5646  -73.0265 S.3       11 UNK        -0.2682 
      8 C8        -80.6674   30.3317  -71.2570 C.3       11 UNK         0.0289 
      9 C9        -79.1958   30.0276  -71.0208 C.ar      11 UNK        -0.0687 
     10 C10       -78.7726   28.7149  -70.8002 C.ar      11 UNK        -0.0823 
     11 C11       -77.4160   28.4247  -70.6330 C.ar      11 UNK        -0.0830 
     12 C12       -76.4881   29.4709  -70.6270 C.ar      11 UNK        -0.1021 
     13 C13       -76.8954   30.7957  -70.8394 C.ar      11 UNK        -0.0753 
     14 C14       -78.2547   31.0601  -71.0334 C.ar      11 UNK        -0.0933 
     15 C15       -75.9199   31.9762  -70.8700 C.3       11 UNK         0.0166 
     16 S16       -74.1520   31.5640  -71.0767 S.3       11 UNK        -0.2615 
     17 C17       -74.1372   30.8148  -72.7423 C.3       11 UNK        -0.0865 
     18 CA        -72.9286   29.8694  -72.9592 C.3       10 UNK         0.0862 
     19 C         -72.9884   28.5924  -72.0839 C.2       10 UNK         0.5551 
     20 N         -72.1252   28.4748  -71.0847 N.am      10 UNK        -0.7319 
     21 O         -73.8259   27.7191  -72.2894 O.2       10 UNK        -0.5018 
     22 N         -72.8264   29.4722  -74.3633 N.am      10 UNK        -0.4509 
     23 C         -72.0334   30.0387  -75.2785 C.2       10 UNK         0.4899 
     24 O         -71.3551   31.0465  -75.0714 O.2       10 UNK        -0.4839 
     25 CA        -71.9871   29.3413  -76.6521 C.3       9 UNK         0.0222 
     26 CB        -70.8529   29.8562  -77.5632 C.3       9 UNK        -0.1966 
     27 N         -71.9419   27.8805  -76.5235 N.am      9 UNK        -0.4218 
     28 C         -71.0013   27.1353  -75.9216 C.2       9 UNK         0.5020 
     29 O         -69.9509   27.5866  -75.4630 O.2       9 UNK        -0.5274 
     30 CA        -71.2860   25.6282  -75.7728 C.3       8 UNK         0.0270 
     31 CB        -71.6796   25.3083  -74.3209 C.3       8 UNK        -0.1976 
     32 N         -72.3324   25.1330  -76.6727 N.am      8 UNK        -0.4313 
     33 C         -72.1905   24.9928  -77.9983 C.2       8 UNK         0.5041 
     34 O         -71.1343   25.1950  -78.5988 O.2       8 UNK        -0.5577 
     35 CA        -73.4429   24.5890  -78.7937 C.3       7 UNK         0.0284 
     36 CB        -73.6457   23.0662  -78.7472 C.3       7 UNK        -0.1958 
     37 N         -74.6590   25.2672  -78.3335 N.am      7 UNK        -0.4454 
     38 C         -74.8765   26.5887  -78.4108 C.2       7 UNK         0.5089 
     39 O         -74.0819   27.3858  -78.9082 O.2       7 UNK        -0.5125 
     40 CA        -76.1777   27.1218  -77.7848 C.3       6 UNK         0.0408 
     41 CB        -77.3779   26.8836  -78.7136 C.3       6 UNK        -0.1791 
     42 N         -76.4451   26.5447  -76.4660 N.am      6 UNK        -0.4762 
     43 C         -75.6620   26.7147  -75.3894 C.2       6 UNK         0.5007 
     44 O         -74.6554   27.4238  -75.3802 O.2       6 UNK        -0.5032 
     45 CA        -76.0502   25.9262  -74.1257 C.3       5 UNK         0.0783 
     46 C46       -77.1234   26.7001  -73.3244 C.3       11 UNK        -0.0857 
     47 S47       -77.6104   25.8662  -71.7740 S.3       11 UNK        -0.2512 
     48 C48       -76.9386   26.9819  -70.4900 C.3       11 UNK         0.0225 
     49 N         -76.4621   24.5605  -74.4656 N.am      5 UNK        -0.4615 
     50 C         -75.6416   23.6230  -74.9600 C.2       4 UNK         0.5053 
     51 O         -74.4413   23.8013  -75.1630 O.2       4 UNK        -0.5105 
     52 CA        -76.2762   22.2739  -75.3363 C.3       4 UNK         0.0263 
     53 CB        -76.4617   21.3954  -74.0889 C.3       4 UNK        -0.1981 
     54 N         -77.5592   22.4287  -76.0254 N.am      4 UNK        -0.4224 
     55 C         -77.7135   23.0177  -77.2206 C.2       3 UNK         0.4895 
     56 O         -76.7797   23.4309  -77.9052 O.2       3 UNK        -0.5091 
     57 CA        -79.1538   23.2261  -77.7183 C.3       3 UNK         0.0250 
     58 CB        -79.6133   22.0221  -78.5553 C.3       3 UNK        -0.1996 
     59 N         -80.1173   23.4734  -76.6406 N.am      3 UNK        -0.4254 
     60 C         -80.0625   24.5045  -75.7855 C.2       2 UNK         0.5004 
     61 O         -79.1763   25.3636  -75.8003 O.2       2 UNK        -0.5226 
     62 CA        -81.1405   24.5185  -74.6894 C.3       2 UNK         0.0269 
     63 CB        -80.7141   23.6172  -73.5184 C.3       2 UNK        -0.1926 
     64 N         -81.4151   25.8561  -74.1658 N.am      2 UNK        -0.4687 
     65 C         -81.9277   26.8840  -74.8522 C.2       1 UNK         0.5165 
     66 O         -82.2547   26.8201  -76.0385 O.2       1 UNK        -0.5079 
     67 H67       -83.6796   27.7655  -69.8382 H         1 UNK         0.0900 
     68 H68       -84.3058   26.2942  -70.5871 H         1 UNK         0.0900 
     69 H69       -84.8746   27.8739  -71.1323 H         1 UNK         0.0900 
     70 H70       -83.9808   28.4457  -73.0686 H         1 UNK         0.2959 
     71 H71       -82.6818   28.8589  -74.7592 H         1 UNK         0.1079 
     72 H72       -80.2241   28.2728  -73.0399 H         1 UNK         0.0837 
     73 H73       -80.2013   28.9963  -74.6159 H         1 UNK         0.0837 
     74 H74       -80.9379   31.2422  -70.7204 H         1 UNK         0.0685 
     75 H75       -81.2950   29.5429  -70.8437 H         1 UNK         0.0685 
     76 H76       -79.4955   27.9102  -70.7961 H         1 UNK         0.1434 
     77 H77       -75.4437   29.2399  -70.4769 H         1 UNK         0.1329 
     78 H78       -78.5849   32.0758  -71.2054 H         1 UNK         0.1335 
     79 H79       -76.0308   32.5336  -69.9391 H         1 UNK         0.0680 
     80 H80       -76.2019   32.6592  -71.6730 H         1 UNK         0.0680 
     81 H81       -74.1037   31.6298  -73.4669 H         1 UNK         0.1032 
     82 H82       -75.0721   30.2848  -72.9325 H         1 UNK         0.1032 
     83 H83       -72.0219   30.4145  -72.6876 H         1 UNK         0.0461 
     84 H84       -71.4467   29.1957  -70.8954 H         1 UNK         0.3453 
     85 H85       -72.1599   27.6528  -70.5034 H         1 UNK         0.3453 
     86 H86       -73.3628   28.6447  -74.6177 H         1 UNK         0.2984 
     87 H87       -72.9342   29.5704  -77.1427 H         1 UNK         0.0554 
     88 H88       -70.8583   29.3470  -78.5270 H         1 UNK         0.0847 
     89 H89       -69.8709   29.7114  -77.1121 H         1 UNK         0.0847 
     90 H90       -70.9649   30.9230  -77.7601 H         1 UNK         0.0847 
     91 H91       -72.7802   27.4019  -76.8285 H         1 UNK         0.3141 
     92 H92       -70.3600   25.0966  -76.0015 H         1 UNK         0.0743 
     93 H93       -72.6117   25.8005  -74.0401 H         1 UNK         0.0784 
     94 H94       -71.8093   24.2363  -74.1713 H         1 UNK         0.0784 
     95 H95       -70.9120   25.6428  -73.6218 H         1 UNK         0.0784 
     96 H96       -73.2134   24.8620  -76.2414 H         1 UNK         0.3213 
     97 H97       -73.2786   24.8777  -79.8341 H         1 UNK         0.0855 
     98 H98       -73.8557   22.7174  -77.7355 H         1 UNK         0.0814 
     99 H99       -72.7552   22.5418  -79.0964 H         1 UNK         0.0814 
    100 H100      -74.4742   22.7576  -79.3850 H         1 UNK         0.0814 
    101 H101      -75.3997   24.6720  -77.9670 H         1 UNK         0.3105 
    102 H102      -76.0655   28.1999  -77.6518 H         1 UNK         0.0547 
    103 H103      -77.2311   27.3835  -79.6718 H         1 UNK         0.0837 
    104 H104      -77.5271   25.8246  -78.9213 H         1 UNK         0.0837 
    105 H105      -78.2997   27.2734  -78.2812 H         1 UNK         0.0837 
    106 H106      -77.2800   25.9745  -76.3676 H         1 UNK         0.3020 
    107 H107      -75.1543   25.8508  -73.5062 H         1 UNK         0.1245 
    108 H108      -78.0271   26.8404  -73.9198 H         1 UNK         0.0781 
    109 H109      -76.7582   27.7036  -73.1003 H         1 UNK         0.0781 
    110 H110      -75.8493   26.9302  -70.5284 H         1 UNK         0.0836 
    111 H111      -77.2314   26.6081  -69.5083 H         1 UNK         0.0836 
    112 H112      -77.4466   24.3594  -74.3721 H         1 UNK         0.3022 
    113 H113      -75.5909   21.7631  -76.0160 H         1 UNK         0.0747 
    114 H114      -76.8345   20.4055  -74.3526 H         1 UNK         0.0793 
    115 H115      -75.5133   21.2544  -73.5685 H         1 UNK         0.0793 
    116 H116      -77.1599   21.8399  -73.3783 H         1 UNK         0.0793 
    117 H117      -78.3836   22.1096  -75.5390 H         1 UNK         0.3047 
    118 H118      -79.1520   24.1076  -78.3623 H         1 UNK         0.0822 
    119 H119      -80.5955   22.1956  -78.9956 H         1 UNK         0.0807 
    120 H120      -79.6675   21.1102  -77.9592 H         1 UNK         0.0807 
    121 H121      -78.9216   21.8329  -79.3777 H         1 UNK         0.0807 
    122 H122      -80.8705   22.8062  -76.5510 H         1 UNK         0.2946 
    123 H123      -82.0705   24.1352  -75.1151 H         1 UNK         0.1144 
    124 H124      -79.7926   23.9711  -73.0541 H         1 UNK         0.0793 
    125 H125      -80.5429   22.5914  -73.8471 H         1 UNK         0.0793 
    126 H126      -81.4826   23.5824  -72.7458 H         1 UNK         0.0793 
    127 H127      -81.2336   26.0120  -73.1778 H         1 UNK         0.2896 
@<TRIPOS>BOND
     1    1    2 1    
     2    1   67 1    
     3    1   68 1    
     4    1   69 1    
     5    2    3 2    
     6    2    4 am   BACKBONE|DICT|INTERRES
     7    4    5 1    
     8    4   70 1    
     9    5    6 1    
    10    5   65 1    
    11    5   71 1    
    12    6    7 1    
    13    6   72 1    
    14    6   73 1    
    15    7    8 1    
    16    8    9 1    
    17    8   74 1    
    18    8   75 1    
    19    9   10 ar   
    20    9   14 ar   
    21   10   11 ar   
    22   10   76 1    
    23   11   12 ar   
    24   11   48 1    
    25   12   13 ar   
    26   12   77 1    
    27   13   14 ar   
    28   13   15 1    
    29   14   78 1    
    30   15   16 1    
    31   15   79 1    
    32   15   80 1    
    33   16   17 1    
    34   17   18 1    
    35   17   81 1    
    36   17   82 1    
    37   18   19 1    
    38   18   22 1    
    39   18   83 1    
    40   19   20 am   BACKBONE|DICT|INTERRES
    41   19   21 2    
    42   20   84 1    
    43   20   85 1    
    44   22   23 am   BACKBONE|DICT|INTERRES
    45   22   86 1    
    46   23   24 2    
    47   23   25 1    
    48   25   26 1    
    49   25   27 1    
    50   25   87 1    
    51   26   88 1    
    52   26   89 1    
    53   26   90 1    
    54   27   28 am   BACKBONE|DICT|INTERRES
    55   27   91 1    
    56   28   29 2    
    57   28   30 1    
    58   30   31 1    
    59   30   32 1    
    60   30   92 1    
    61   31   93 1    
    62   31   94 1    
    63   31   95 1    
    64   32   33 am   BACKBONE|DICT|INTERRES
    65   32   96 1    
    66   33   34 2    
    67   33   35 1    
    68   35   36 1    
    69   35   37 1    
    70   35   97 1    
    71   36   98 1    
    72   36   99 1    
    73   36  100 1    
    74   37   38 am   BACKBONE|DICT|INTERRES
    75   37  101 1    
    76   38   39 2    
    77   38   40 1    
    78   40   41 1    
    79   40   42 1    
    80   40  102 1    
    81   41  103 1    
    82   41  104 1    
    83   41  105 1    
    84   42   43 am   BACKBONE|DICT|INTERRES
    85   42  106 1    
    86   43   44 2    
    87   43   45 1    
    88   45   46 1    
    89   45   49 1    
    90   45  107 1    
    91   46   47 1    
    92   46  108 1    
    93   46  109 1    
    94   47   48 1    
    95   48  110 1    
    96   48  111 1    
    97   49   50 am   BACKBONE|DICT|INTERRES
    98   49  112 1    
    99   50   51 2    
   100   50   52 1    
   101   52   53 1    
   102   52   54 1    
   103   52  113 1    
   104   53  114 1    
   105   53  115 1    
   106   53  116 1    
   107   54   55 am   BACKBONE|DICT|INTERRES
   108   54  117 1    
   109   55   56 2    
   110   55   57 1    
   111   57   58 1    
   112   57   59 1    
   113   57  118 1    
   114   58  119 1    
   115   58  120 1    
   116   58  121 1    
   117   59   60 am   BACKBONE|DICT|INTERRES
   118   59  122 1    
   119   60   61 2    
   120   60   62 1    
   121   62   63 1    
   122   62   64 1    
   123   62  123 1    
   124   63  124 1    
   125   63  125 1    
   126   63  126 1    
   127   64   65 am   BACKBONE|DICT|INTERRES
   128   64  127 1    
   129   65   66 2    
@<TRIPOS>SUBSTRUCTURE
     1 UNK         1 GROUP             0       ****    0 ROOT    
