@<TRIPOS>MOLECULE
3R135
127   129    1
SMALL
USER_CHARGES


@<TRIPOS>ATOM
      1 CA        -78.4039   25.1772  -69.8891 C.3       0 UNK        -0.1998 
      2 C         -79.4603   25.0230  -70.9727 C.2       0 UNK         0.4909 
      3 O         -79.1286   24.5962  -72.0775 O.2       0 UNK        -0.5240 
      4 N         -80.7221   25.3493  -70.6443 N.am      1 UNK        -0.4739 
      5 CA        -81.9208   25.4085  -71.5069 C.3       1 UNK         0.0864 
      6 C6        -82.1487   26.7978  -72.1781 C.3       11 UNK        -0.0881 
      7 S7        -80.7310   27.4913  -73.1025 S.3       11 UNK        -0.2682 
      8 C8        -80.3260   28.9092  -72.0372 C.3       11 UNK         0.0289 
      9 C9        -79.0590   29.6289  -72.4754 C.ar      11 UNK        -0.0687 
     10 C10       -79.0471   30.3900  -73.6497 C.ar      11 UNK        -0.0823 
     11 C11       -77.9062   31.1124  -74.0152 C.ar      11 UNK        -0.0830 
     12 C12       -76.7719   31.0638  -73.1990 C.ar      11 UNK        -0.1021 
     13 C13       -76.7721   30.3066  -72.0245 C.ar      11 UNK        -0.0753 
     14 C14       -77.9155   29.5851  -71.6712 C.ar      11 UNK        -0.0933 
     15 C15       -75.5479   30.2972  -71.1232 C.3       11 UNK         0.0166 
     16 S16       -74.5365   28.8188  -71.4121 S.3       11 UNK        -0.2615 
     17 C17       -72.9461   29.3379  -70.6807 C.3       11 UNK        -0.0865 
     18 CA        -72.0114   30.0263  -71.7118 C.3       10 UNK         0.0862 
     19 C         -70.6893   30.5032  -71.0440 C.2       10 UNK         0.5551 
     20 N         -69.5210   30.0418  -71.4733 N.am      10 UNK        -0.7319 
     21 O         -70.7264   31.3140  -70.1217 O.2       10 UNK        -0.5018 
     22 N         -71.8309   29.1947  -72.9112 N.am      10 UNK        -0.4509 
     23 C         -71.5217   29.6352  -74.1335 C.2       10 UNK         0.4899 
     24 O         -71.2814   30.8145  -74.3934 O.2       10 UNK        -0.4839 
     25 CA        -71.4940   28.5982  -75.2723 C.3       9 UNK         0.0222 
     26 CB        -70.0906   27.9831  -75.4326 C.3       9 UNK        -0.1966 
     27 N         -72.5331   27.5591  -75.1942 N.am      9 UNK        -0.4218 
     28 C         -72.6786   26.5635  -74.3048 C.2       9 UNK         0.5020 
     29 O         -71.9384   26.3911  -73.3351 O.2       9 UNK        -0.5274 
     30 CA        -73.8531   25.5960  -74.5290 C.3       8 UNK         0.0270 
     31 CB        -75.1452   26.1565  -73.9128 C.3       8 UNK        -0.1976 
     32 N         -74.0827   25.2976  -75.9425 N.am      8 UNK        -0.4313 
     33 C         -73.2443   24.6181  -76.7374 C.2       8 UNK         0.5041 
     34 O         -72.1823   24.1229  -76.3583 O.2       8 UNK        -0.5577 
     35 CA        -73.6600   24.4746  -78.2091 C.3       7 UNK         0.0284 
     36 CB        -74.6805   23.3369  -78.3831 C.3       7 UNK        -0.1958 
     37 N         -74.2164   25.7256  -78.7282 N.am      7 UNK        -0.4454 
     38 C         -73.4781   26.7455  -79.1878 C.2       7 UNK         0.5089 
     39 O         -72.2516   26.7118  -79.2886 O.2       7 UNK        -0.5125 
     40 CA        -74.2270   28.0232  -79.6133 C.3       6 UNK         0.0408 
     41 CB        -74.4965   28.0046  -81.1263 C.3       6 UNK        -0.1791 
     42 N         -75.4905   28.2392  -78.9017 N.am      6 UNK        -0.4762 
     43 C         -75.5907   28.5217  -77.5939 C.2       6 UNK         0.5007 
     44 O         -74.6206   28.6124  -76.8412 O.2       6 UNK        -0.5032 
     45 CA        -77.0228   28.6438  -77.0215 C.3       5 UNK         0.0783 
     46 C46       -77.6485   30.0354  -77.2919 C.3       11 UNK        -0.0857 
     47 S47       -76.7455   31.4260  -76.5279 S.3       11 UNK        -0.2512 
     48 C48       -77.9121   31.9994  -75.2528 C.3       11 UNK         0.0225 
     49 N         -77.9121   27.5758  -77.5049 N.am      5 UNK        -0.4615 
     50 C         -77.6732   26.2632  -77.3964 C.2       4 UNK         0.5053 
     51 O         -76.6408   25.7941  -76.9149 O.2       4 UNK        -0.5105 
     52 CA        -78.7221   25.3077  -77.9853 C.3       4 UNK         0.0263 
     53 CB        -78.3884   24.9924  -79.4527 C.3       4 UNK        -0.1981 
     54 N         -78.7461   24.0606  -77.2189 N.am      4 UNK        -0.4224 
     55 C         -79.2670   23.9593  -75.9901 C.2       3 UNK         0.4895 
     56 O         -79.9478   24.8429  -75.4664 O.2       3 UNK        -0.5091 
     57 CA        -78.9332   22.6737  -75.2196 C.3       3 UNK         0.0250 
     58 CB        -77.4871   22.7235  -74.6949 C.3       3 UNK        -0.1996 
     59 N         -79.8339   22.5232  -74.0784 N.am      3 UNK        -0.4254 
     60 C         -80.8997   21.7137  -74.0435 C.2       2 UNK         0.5004 
     61 O         -81.1991   20.9372  -74.9522 O.2       2 UNK        -0.5226 
     62 CA        -81.7850   21.7576  -72.7834 C.3       2 UNK         0.0269 
     63 CB        -81.4460   20.5846  -71.8487 C.3       2 UNK        -0.1926 
     64 N         -81.6802   23.0109  -72.0312 N.am      2 UNK        -0.4687 
     65 C         -82.1638   24.1934  -72.4389 C.2       1 UNK         0.5165 
     66 O         -82.8236   24.3240  -73.4718 O.2       1 UNK        -0.5079 
     67 H67       -77.6344   25.8755  -70.2179 H         1 UNK         0.0900 
     68 H68       -77.9293   24.2172  -69.6883 H         1 UNK         0.0900 
     69 H69       -78.8247   25.5512  -68.9560 H         1 UNK         0.0900 
     70 H70       -80.8914   25.6471  -69.6935 H         1 UNK         0.2959 
     71 H71       -82.7438   25.3060  -70.7973 H         1 UNK         0.1079 
     72 H72       -83.0109   26.7782  -72.8468 H         1 UNK         0.0837 
     73 H73       -82.4324   27.5087  -71.4009 H         1 UNK         0.0837 
     74 H74       -80.2261   28.5598  -71.0081 H         1 UNK         0.0685 
     75 H75       -81.1592   29.6134  -72.0448 H         1 UNK         0.0685 
     76 H76       -79.9363   30.4344  -74.2637 H         1 UNK         0.1434 
     77 H77       -75.8917   31.6292  -73.4742 H         1 UNK         0.1329 
     78 H78       -77.9183   29.0057  -70.7580 H         1 UNK         0.1335 
     79 H79       -75.8506   30.3305  -70.0755 H         1 UNK         0.0680 
     80 H80       -74.9480   31.1913  -71.3005 H         1 UNK         0.0680 
     81 H81       -73.1418   29.9963  -69.8319 H         1 UNK         0.1032 
     82 H82       -72.4613   28.4515  -70.2675 H         1 UNK         0.1032 
     83 H83       -72.5146   30.9398  -72.0346 H         1 UNK         0.0461 
     84 H84       -69.4864   29.3794  -72.2313 H         1 UNK         0.3453 
     85 H85       -68.6701   30.3599  -71.0368 H         1 UNK         0.3453 
     86 H86       -71.9734   28.1952  -72.7967 H         1 UNK         0.2984 
     87 H87       -71.7141   29.1457  -76.1902 H         1 UNK         0.0554 
     88 H88       -70.0514   27.3077  -76.2874 H         1 UNK         0.0847 
     89 H89       -69.7851   27.4227  -74.5487 H         1 UNK         0.0847 
     90 H90       -69.3425   28.7595  -75.5979 H         1 UNK         0.0847 
     91 H91       -73.2749   27.6723  -75.8822 H         1 UNK         0.3141 
     92 H92       -73.6144   24.6558  -74.0276 H         1 UNK         0.0743 
     93 H93       -75.0447   26.2605  -72.8324 H         1 UNK         0.0784 
     94 H94       -75.3945   27.1393  -74.3156 H         1 UNK         0.0784 
     95 H95       -75.9950   25.4993  -74.0943 H         1 UNK         0.0784 
     96 H96       -74.9742   25.6049  -76.3312 H         1 UNK         0.3213 
     97 H97       -72.7689   24.2153  -78.7856 H         1 UNK         0.0855 
     98 H98       -75.5944   23.5155  -77.8170 H         1 UNK         0.0814 
     99 H99       -74.2657   22.3893  -78.0368 H         1 UNK         0.0814 
    100 H100      -74.9537   23.2064  -79.4303 H         1 UNK         0.0814 
    101 H101      -75.2111   25.8642  -78.6141 H         1 UNK         0.3105 
    102 H102      -73.5739   28.8711  -79.3956 H         1 UNK         0.0547 
    103 H103      -75.1638   27.1895  -81.4090 H         1 UNK         0.0837 
    104 H104      -74.9447   28.9397  -81.4623 H         1 UNK         0.0837 
    105 H105      -73.5690   27.8741  -81.6857 H         1 UNK         0.0837 
    106 H106      -76.3395   28.1644  -79.4435 H         1 UNK         0.3020 
    107 H107      -76.9411   28.5171  -75.9390 H         1 UNK         0.1245 
    108 H108      -78.6777   30.0489  -76.9300 H         1 UNK         0.0781 
    109 H109      -77.7117   30.2237  -78.3653 H         1 UNK         0.0781 
    110 H110      -77.6296   33.0106  -74.9567 H         1 UNK         0.0836 
    111 H111      -78.9135   32.0817  -75.6784 H         1 UNK         0.0836 
    112 H112      -78.7782   27.8756  -77.9286 H         1 UNK         0.3022 
    113 H113      -79.7070   25.7772  -77.9361 H         1 UNK         0.0747 
    114 H114      -78.3870   25.8996  -80.0583 H         1 UNK         0.0793 
    115 H115      -79.1240   24.3162  -79.8888 H         1 UNK         0.0793 
    116 H116      -77.4060   24.5297  -79.5567 H         1 UNK         0.0793 
    117 H117      -78.1761   23.3054  -77.5694 H         1 UNK         0.3047 
    118 H118      -79.0311   21.8257  -75.9008 H         1 UNK         0.0822 
    119 H119      -76.7707   22.8671  -75.5049 H         1 UNK         0.0807 
    120 H120      -77.2198   21.7976  -74.1857 H         1 UNK         0.0807 
    121 H121      -77.3479   23.5429  -73.9889 H         1 UNK         0.0807 
    122 H122      -79.7064   23.2009  -73.3298 H         1 UNK         0.2946 
    123 H123      -82.8200   21.6449  -73.1145 H         1 UNK         0.1144 
    124 H124      -81.5423   19.6305  -72.3690 H         1 UNK         0.0793 
    125 H125      -82.1179   20.5526  -70.9908 H         1 UNK         0.0793 
    126 H126      -80.4235   20.6497  -71.4745 H         1 UNK         0.0793 
    127 H127      -81.1430   22.9891  -71.1763 H         1 UNK         0.2896 
@<TRIPOS>BOND
     1    1    2 1    
     2    1   67 1    
     3    1   68 1    
     4    1   69 1    
     5    2    3 2    
     6    2    4 am   BACKBONE|DICT|INTERRES
     7    4    5 1    
     8    4   70 1    
     9    5    6 1    
    10    5   65 1    
    11    5   71 1    
    12    6    7 1    
    13    6   72 1    
    14    6   73 1    
    15    7    8 1    
    16    8    9 1    
    17    8   74 1    
    18    8   75 1    
    19    9   10 ar   
    20    9   14 ar   
    21   10   11 ar   
    22   10   76 1    
    23   11   12 ar   
    24   11   48 1    
    25   12   13 ar   
    26   12   77 1    
    27   13   14 ar   
    28   13   15 1    
    29   14   78 1    
    30   15   16 1    
    31   15   79 1    
    32   15   80 1    
    33   16   17 1    
    34   17   18 1    
    35   17   81 1    
    36   17   82 1    
    37   18   19 1    
    38   18   22 1    
    39   18   83 1    
    40   19   20 am   BACKBONE|DICT|INTERRES
    41   19   21 2    
    42   20   84 1    
    43   20   85 1    
    44   22   23 am   BACKBONE|DICT|INTERRES
    45   22   86 1    
    46   23   24 2    
    47   23   25 1    
    48   25   26 1    
    49   25   27 1    
    50   25   87 1    
    51   26   88 1    
    52   26   89 1    
    53   26   90 1    
    54   27   28 am   BACKBONE|DICT|INTERRES
    55   27   91 1    
    56   28   29 2    
    57   28   30 1    
    58   30   31 1    
    59   30   32 1    
    60   30   92 1    
    61   31   93 1    
    62   31   94 1    
    63   31   95 1    
    64   32   33 am   BACKBONE|DICT|INTERRES
    65   32   96 1    
    66   33   34 2    
    67   33   35 1    
    68   35   36 1    
    69   35   37 1    
    70   35   97 1    
    71   36   98 1    
    72   36   99 1    
    73   36  100 1    
    74   37   38 am   BACKBONE|DICT|INTERRES
    75   37  101 1    
    76   38   39 2    
    77   38   40 1    
    78   40   41 1    
    79   40   42 1    
    80   40  102 1    
    81   41  103 1    
    82   41  104 1    
    83   41  105 1    
    84   42   43 am   BACKBONE|DICT|INTERRES
    85   42  106 1    
    86   43   44 2    
    87   43   45 1    
    88   45   46 1    
    89   45   49 1    
    90   45  107 1    
    91   46   47 1    
    92   46  108 1    
    93   46  109 1    
    94   47   48 1    
    95   48  110 1    
    96   48  111 1    
    97   49   50 am   BACKBONE|DICT|INTERRES
    98   49  112 1    
    99   50   51 2    
   100   50   52 1    
   101   52   53 1    
   102   52   54 1    
   103   52  113 1    
   104   53  114 1    
   105   53  115 1    
   106   53  116 1    
   107   54   55 am   BACKBONE|DICT|INTERRES
   108   54  117 1    
   109   55   56 2    
   110   55   57 1    
   111   57   58 1    
   112   57   59 1    
   113   57  118 1    
   114   58  119 1    
   115   58  120 1    
   116   58  121 1    
   117   59   60 am   BACKBONE|DICT|INTERRES
   118   59  122 1    
   119   60   61 2    
   120   60   62 1    
   121   62   63 1    
   122   62   64 1    
   123   62  123 1    
   124   63  124 1    
   125   63  125 1    
   126   63  126 1    
   127   64   65 am   BACKBONE|DICT|INTERRES
   128   64  127 1    
   129   65   66 2    
@<TRIPOS>SUBSTRUCTURE
     1 UNK         1 GROUP             0       ****    0 ROOT    
