@<TRIPOS>MOLECULE
3R135
127   129    1
SMALL
USER_CHARGES


@<TRIPOS>ATOM
      1 CA        -81.6205   23.8859  -69.5952 C.3       0 UNK        -0.1998 
      2 C         -82.1256   24.4464  -70.9164 C.2       0 UNK         0.4909 
      3 O         -83.1224   23.9563  -71.4492 O.2       0 UNK        -0.5240 
      4 N         -81.4500   25.4752  -71.4420 N.am      1 UNK        -0.4739 
      5 CA        -81.7507   26.0979  -72.7365 C.3       1 UNK         0.0864 
      6 C6        -81.1369   27.5151  -72.8500 C.3       11 UNK        -0.0881 
      7 S7        -81.7606   28.6607  -71.5716 S.3       11 UNK        -0.2682 
      8 C8        -80.2928   28.8979  -70.5059 C.3       11 UNK         0.0289 
      9 C9        -79.0555   29.4040  -71.2462 C.ar      11 UNK        -0.0687 
     10 C10       -79.1598   30.3515  -72.2701 C.ar      11 UNK        -0.0823 
     11 C11       -78.0296   30.7701  -72.9769 C.ar      11 UNK        -0.0830 
     12 C12       -76.7744   30.2648  -72.6250 C.ar      11 UNK        -0.1021 
     13 C13       -76.6512   29.3306  -71.5911 C.ar      11 UNK        -0.0753 
     14 C14       -77.7939   28.9056  -70.9066 C.ar      11 UNK        -0.0933 
     15 C15       -75.2927   28.7370  -71.2531 C.3       11 UNK         0.0166 
     16 S16       -74.1533   29.9613  -70.5459 S.3       11 UNK        -0.2615 
     17 C17       -72.6143   28.9781  -70.4953 C.3       11 UNK        -0.0865 
     18 CA        -71.6671   29.2749  -71.6905 C.3       10 UNK         0.0862 
     19 C         -70.2555   28.6515  -71.4683 C.2       10 UNK         0.5551 
     20 N         -69.7141   27.8524  -72.3805 N.am      10 UNK        -0.7319 
     21 O         -69.6294   28.9081  -70.4427 O.2       10 UNK        -0.5018 
     22 N         -72.2845   28.9248  -72.9819 N.am      10 UNK        -0.4509 
     23 C         -71.9848   29.5028  -74.1511 C.2       10 UNK         0.4899 
     24 O         -71.2039   30.4492  -74.2655 O.2       10 UNK        -0.4839 
     25 CA        -72.6702   28.9115  -75.3998 C.3       9 UNK         0.0222 
     26 CB        -72.0224   29.3832  -76.7181 C.3       9 UNK        -0.1966 
     27 N         -72.7725   27.4459  -75.3844 N.am      9 UNK        -0.4218 
     28 C         -71.7770   26.5556  -75.2604 C.2       9 UNK         0.5020 
     29 O         -70.6027   26.8583  -75.0444 O.2       9 UNK        -0.5274 
     30 CA        -72.1537   25.0714  -75.4096 C.3       8 UNK         0.0270 
     31 CB        -72.6906   24.4907  -74.0922 C.3       8 UNK        -0.1976 
     32 N         -73.1013   24.8272  -76.5058 N.am      8 UNK        -0.4313 
     33 C         -72.7516   24.8856  -77.8004 C.2       8 UNK         0.5041 
     34 O         -71.6218   25.1860  -78.1892 O.2       8 UNK        -0.5577 
     35 CA        -73.8186   24.5371  -78.8444 C.3       7 UNK         0.0284 
     36 CB        -74.1579   23.0355  -78.8204 C.3       7 UNK        -0.1958 
     37 N         -75.0342   25.3329  -78.6586 N.am      7 UNK        -0.4454 
     38 C         -75.5047   26.2025  -79.5633 C.2       7 UNK         0.5089 
     39 O         -74.9451   26.4485  -80.6330 O.2       7 UNK        -0.5125 
     40 CA        -76.8356   26.9107  -79.2594 C.3       6 UNK         0.0408 
     41 CB        -78.0131   26.1309  -79.8655 C.3       6 UNK        -0.1791 
     42 N         -77.0929   27.1600  -77.8396 N.am      6 UNK        -0.4762 
     43 C         -76.4558   28.0932  -77.1167 C.2       6 UNK         0.5007 
     44 O         -75.4810   28.7233  -77.5255 O.2       6 UNK        -0.5032 
     45 CA        -77.0119   28.3852  -75.7105 C.3       5 UNK         0.0783 
     46 C46       -78.2221   29.3559  -75.7604 C.3       11 UNK        -0.0857 
     47 S47       -77.6468   31.0933  -75.7498 S.3       11 UNK        -0.2512 
     48 C48       -78.1876   31.7522  -74.1321 C.3       11 UNK         0.0225 
     49 N         -77.3122   27.1413  -75.0004 N.am      5 UNK        -0.4615 
     50 C         -76.3997   26.4866  -74.2704 C.2       4 UNK         0.5053 
     51 O         -75.2500   26.8861  -74.1047 O.2       4 UNK        -0.5105 
     52 CA        -76.8008   25.1220  -73.6877 C.3       4 UNK         0.0263 
     53 CB        -77.5807   25.2892  -72.3756 C.3       4 UNK        -0.1981 
     54 N         -77.5585   24.3133  -74.6447 N.am      4 UNK        -0.4224 
     55 C         -77.0600   23.9223  -75.8287 C.2       3 UNK         0.4895 
     56 O         -75.8994   24.1435  -76.1797 O.2       3 UNK        -0.5091 
     57 CA        -78.0004   23.2118  -76.8170 C.3       3 UNK         0.0250 
     58 CB        -77.7915   21.6914  -76.7476 C.3       3 UNK        -0.1996 
     59 N         -79.4241   23.5135  -76.6409 N.am      3 UNK        -0.4254 
     60 C         -79.9911   24.7291  -76.6571 C.2       2 UNK         0.5004 
     61 O         -79.3654   25.7786  -76.8238 O.2       2 UNK        -0.5226 
     62 CA        -81.5055   24.7987  -76.3766 C.3       2 UNK         0.0269 
     63 CB        -82.2195   23.4277  -76.4114 C.3       2 UNK        -0.1926 
     64 N         -81.7977   25.4825  -75.1090 N.am      2 UNK        -0.4687 
     65 C         -81.2747   25.2061  -73.9035 C.2       1 UNK         0.5165 
     66 O         -80.4318   24.3245  -73.7066 O.2       1 UNK        -0.5079 
     67 H67       -82.3976   23.9590  -68.8348 H         1 UNK         0.0900 
     68 H68       -81.3541   22.8357  -69.7116 H         1 UNK         0.0900 
     69 H69       -80.7417   24.4204  -69.2346 H         1 UNK         0.0900 
     70 H70       -80.6301   25.8235  -70.9696 H         1 UNK         0.2959 
     71 H71       -82.8364   26.1889  -72.8203 H         1 UNK         0.1079 
     72 H72       -80.0488   27.4709  -72.8160 H         1 UNK         0.0837 
     73 H73       -81.3796   27.9617  -73.8160 H         1 UNK         0.0837 
     74 H74       -80.5438   29.6113  -69.7202 H         1 UNK         0.0685 
     75 H75       -80.0770   27.9522  -70.0067 H         1 UNK         0.0685 
     76 H76       -80.1311   30.7445  -72.5369 H         1 UNK         0.1434 
     77 H77       -75.8949   30.5822  -73.1685 H         1 UNK         0.1329 
     78 H78       -77.7022   28.1729  -70.1166 H         1 UNK         0.1335 
     79 H79       -75.3936   27.8977  -70.5634 H         1 UNK         0.0680 
     80 H80       -74.8500   28.3394  -72.1615 H         1 UNK         0.0680 
     81 H81       -72.1214   29.2187  -69.5512 H         1 UNK         0.1032 
     82 H82       -72.8476   27.9131  -70.4427 H         1 UNK         0.1032 
     83 H83       -71.4978   30.3535  -71.6920 H         1 UNK         0.0461 
     84 H84       -70.1854   27.6470  -73.2548 H         1 UNK         0.3453 
     85 H85       -68.7982   27.4691  -72.2100 H         1 UNK         0.3453 
     86 H86       -72.9218   28.1421  -72.9827 H         1 UNK         0.2984 
     87 H87       -73.6943   29.2862  -75.3839 H         1 UNK         0.0554 
     88 H88       -72.0459   30.4704  -76.8013 H         1 UNK         0.0847 
     89 H89       -72.5529   28.9832  -77.5825 H         1 UNK         0.0847 
     90 H90       -70.9800   29.0710  -76.7896 H         1 UNK         0.0847 
     91 H91       -73.7193   27.0821  -75.4088 H         1 UNK         0.3141 
     92 H92       -71.2335   24.5312  -75.6438 H         1 UNK         0.0743 
     93 H93       -73.6026   24.9852  -73.7676 H         1 UNK         0.0784 
     94 H94       -72.9024   23.4254  -74.1854 H         1 UNK         0.0784 
     95 H95       -71.9587   24.6070  -73.2917 H         1 UNK         0.0784 
     96 H96       -74.0529   24.5599  -76.2624 H         1 UNK         0.3213 
     97 H97       -73.3763   24.7444  -79.8212 H         1 UNK         0.0855 
     98 H98       -74.5672   22.7152  -77.8630 H         1 UNK         0.0814 
     99 H99       -73.2662   22.4353  -79.0059 H         1 UNK         0.0814 
    100 H100      -74.8834   22.7831  -79.5937 H         1 UNK         0.0814 
    101 H101      -75.5388   25.1913  -77.7896 H         1 UNK         0.3105 
    102 H102      -76.7998   27.8817  -79.7585 H         1 UNK         0.0547 
    103 H103      -77.8741   25.9856  -80.9377 H         1 UNK         0.0837 
    104 H104      -78.1228   25.1449  -79.4168 H         1 UNK         0.0837 
    105 H105      -78.9539   26.6650  -79.7315 H         1 UNK         0.0837 
    106 H106      -77.8944   26.6806  -77.4321 H         1 UNK         0.3020 
    107 H107      -76.2120   28.8898  -75.1636 H         1 UNK         0.1245 
    108 H108      -78.8856   29.1884  -74.9121 H         1 UNK         0.0781 
    109 H109      -78.8439   29.1882  -76.6422 H         1 UNK         0.0781 
    110 H110      -79.2273   32.0697  -74.2264 H         1 UNK         0.0836 
    111 H111      -77.6163   32.6548  -73.9116 H         1 UNK         0.0836 
    112 H112      -78.2066   26.7071  -75.1884 H         1 UNK         0.3022 
    113 H113      -75.8844   24.5758  -73.4584 H         1 UNK         0.0747 
    114 H114      -77.8376   24.3236  -71.9397 H         1 UNK         0.0793 
    115 H115      -76.9883   25.8330  -71.6386 H         1 UNK         0.0793 
    116 H116      -78.5036   25.8451  -72.5229 H         1 UNK         0.0793 
    117 H117      -78.5312   24.1217  -74.4226 H         1 UNK         0.3047 
    118 H118      -77.7176   23.5432  -77.8166 H         1 UNK         0.0822 
    119 H119      -78.3648   21.1753  -77.5180 H         1 UNK         0.0807 
    120 H120      -78.0878   21.2872  -75.7788 H         1 UNK         0.0807 
    121 H121      -76.7426   21.4331  -76.9015 H         1 UNK         0.0807 
    122 H122      -80.0251   22.7242  -76.4534 H         1 UNK         0.2946 
    123 H123      -81.9265   25.4131  -77.1745 H         1 UNK         0.1144 
    124 H124      -83.2978   23.5503  -76.3081 H         1 UNK         0.0793 
    125 H125      -81.8904   22.7676  -75.6077 H         1 UNK         0.0793 
    126 H126      -82.0509   22.9150  -77.3597 H         1 UNK         0.0793 
    127 H127      -82.4504   26.2512  -75.1795 H         1 UNK         0.2896 
@<TRIPOS>BOND
     1    1    2 1    
     2    1   67 1    
     3    1   68 1    
     4    1   69 1    
     5    2    3 2    
     6    2    4 am   BACKBONE|DICT|INTERRES
     7    4    5 1    
     8    4   70 1    
     9    5    6 1    
    10    5   65 1    
    11    5   71 1    
    12    6    7 1    
    13    6   72 1    
    14    6   73 1    
    15    7    8 1    
    16    8    9 1    
    17    8   74 1    
    18    8   75 1    
    19    9   10 ar   
    20    9   14 ar   
    21   10   11 ar   
    22   10   76 1    
    23   11   12 ar   
    24   11   48 1    
    25   12   13 ar   
    26   12   77 1    
    27   13   14 ar   
    28   13   15 1    
    29   14   78 1    
    30   15   16 1    
    31   15   79 1    
    32   15   80 1    
    33   16   17 1    
    34   17   18 1    
    35   17   81 1    
    36   17   82 1    
    37   18   19 1    
    38   18   22 1    
    39   18   83 1    
    40   19   20 am   BACKBONE|DICT|INTERRES
    41   19   21 2    
    42   20   84 1    
    43   20   85 1    
    44   22   23 am   BACKBONE|DICT|INTERRES
    45   22   86 1    
    46   23   24 2    
    47   23   25 1    
    48   25   26 1    
    49   25   27 1    
    50   25   87 1    
    51   26   88 1    
    52   26   89 1    
    53   26   90 1    
    54   27   28 am   BACKBONE|DICT|INTERRES
    55   27   91 1    
    56   28   29 2    
    57   28   30 1    
    58   30   31 1    
    59   30   32 1    
    60   30   92 1    
    61   31   93 1    
    62   31   94 1    
    63   31   95 1    
    64   32   33 am   BACKBONE|DICT|INTERRES
    65   32   96 1    
    66   33   34 2    
    67   33   35 1    
    68   35   36 1    
    69   35   37 1    
    70   35   97 1    
    71   36   98 1    
    72   36   99 1    
    73   36  100 1    
    74   37   38 am   BACKBONE|DICT|INTERRES
    75   37  101 1    
    76   38   39 2    
    77   38   40 1    
    78   40   41 1    
    79   40   42 1    
    80   40  102 1    
    81   41  103 1    
    82   41  104 1    
    83   41  105 1    
    84   42   43 am   BACKBONE|DICT|INTERRES
    85   42  106 1    
    86   43   44 2    
    87   43   45 1    
    88   45   46 1    
    89   45   49 1    
    90   45  107 1    
    91   46   47 1    
    92   46  108 1    
    93   46  109 1    
    94   47   48 1    
    95   48  110 1    
    96   48  111 1    
    97   49   50 am   BACKBONE|DICT|INTERRES
    98   49  112 1    
    99   50   51 2    
   100   50   52 1    
   101   52   53 1    
   102   52   54 1    
   103   52  113 1    
   104   53  114 1    
   105   53  115 1    
   106   53  116 1    
   107   54   55 am   BACKBONE|DICT|INTERRES
   108   54  117 1    
   109   55   56 2    
   110   55   57 1    
   111   57   58 1    
   112   57   59 1    
   113   57  118 1    
   114   58  119 1    
   115   58  120 1    
   116   58  121 1    
   117   59   60 am   BACKBONE|DICT|INTERRES
   118   59  122 1    
   119   60   61 2    
   120   60   62 1    
   121   62   63 1    
   122   62   64 1    
   123   62  123 1    
   124   63  124 1    
   125   63  125 1    
   126   63  126 1    
   127   64   65 am   BACKBONE|DICT|INTERRES
   128   64  127 1    
   129   65   66 2    
@<TRIPOS>SUBSTRUCTURE
     1 UNK         1 GROUP             0       ****    0 ROOT    
