@<TRIPOS>MOLECULE
3R135
127   129    1
SMALL
USER_CHARGES


@<TRIPOS>ATOM
      1 CA        -81.5708   28.2501  -69.8093 C.3       0 UNK        -0.1998 
      2 C         -82.4149   28.4572  -71.0583 C.2       0 UNK         0.4909 
      3 O         -83.1688   29.4278  -71.1336 O.2       0 UNK        -0.5240 
      4 N         -82.2936   27.5531  -72.0356 N.am      1 UNK        -0.4739 
      5 CA        -83.0585   27.5632  -73.2862 C.3       1 UNK         0.0864 
      6 C6        -82.6063   28.6486  -74.3044 C.3       11 UNK        -0.0881 
      7 S7        -80.8535   28.5321  -74.8102 S.3       11 UNK        -0.2682 
      8 C8        -80.0852   29.8488  -73.8176 C.3       11 UNK         0.0289 
      9 C9        -78.6880   29.4388  -73.3846 C.ar      11 UNK        -0.0687 
     10 C10       -78.5281   28.5908  -72.2866 C.ar      11 UNK        -0.0823 
     11 C11       -77.2566   28.1780  -71.8837 C.ar      11 UNK        -0.0830 
     12 C12       -76.1357   28.6299  -72.5860 C.ar      11 UNK        -0.1021 
     13 C13       -76.2809   29.4759  -73.6904 C.ar      11 UNK        -0.0753 
     14 C14       -77.5608   29.8836  -74.0814 C.ar      11 UNK        -0.0933 
     15 C15       -75.0640   29.9007  -74.4994 C.3       11 UNK         0.0166 
     16 S16       -74.3664   31.4789  -73.9187 S.3       11 UNK        -0.2615 
     17 C17       -73.3254   30.9321  -72.5214 C.3       11 UNK        -0.0865 
     18 CA        -71.8090   31.1740  -72.7482 C.3       10 UNK         0.0862 
     19 C         -71.0111   30.7819  -71.4682 C.2       10 UNK         0.5551 
     20 N         -70.1902   29.7387  -71.4871 N.am      10 UNK        -0.7319 
     21 O         -71.1440   31.4395  -70.4390 O.2       10 UNK        -0.5018 
     22 N         -71.3306   30.5607  -74.0015 N.am      10 UNK        -0.4509 
     23 C         -70.1429   30.7896  -74.5770 C.2       10 UNK         0.4899 
     24 O         -69.3074   31.5708  -74.1192 O.2       10 UNK        -0.4839 
     25 CA        -69.8324   30.0057  -75.8713 C.3       9 UNK         0.0222 
     26 CB        -68.3592   30.1376  -76.3032 C.3       9 UNK        -0.1966 
     27 N         -70.1675   28.5809  -75.7580 N.am      9 UNK        -0.4218 
     28 C         -71.3921   28.0657  -75.9197 C.2       9 UNK         0.5020 
     29 O         -72.3843   28.7505  -76.1731 O.2       9 UNK        -0.5274 
     30 CA        -71.5374   26.5555  -75.6798 C.3       8 UNK         0.0270 
     31 CB        -71.7043   26.2718  -74.1769 C.3       8 UNK        -0.1976 
     32 N         -72.6906   26.0167  -76.4046 N.am      8 UNK        -0.4313 
     33 C         -72.6790   25.7083  -77.7103 C.2       8 UNK         0.5041 
     34 O         -71.6689   25.7838  -78.4128 O.2       8 UNK        -0.5577 
     35 CA        -73.9878   25.2104  -78.3577 C.3       7 UNK         0.0284 
     36 CB        -73.9593   23.6809  -78.5132 C.3       7 UNK        -0.1958 
     37 N         -75.1978   25.5843  -77.6269 N.am      7 UNK        -0.4454 
     38 C         -75.6740   26.8291  -77.4958 C.2       7 UNK         0.5089 
     39 O         -75.2044   27.8074  -78.0766 O.2       7 UNK        -0.5125 
     40 CA        -76.8752   27.0177  -76.5495 C.3       6 UNK         0.0408 
     41 CB        -78.1755   27.0977  -77.3612 C.3       6 UNK        -0.1791 
     42 N         -77.0100   25.9833  -75.5146 N.am      6 UNK        -0.4762 
     43 C         -76.0822   25.6728  -74.5939 C.2       6 UNK         0.5007 
     44 O         -74.9722   26.2010  -74.5412 O.2       6 UNK        -0.5032 
     45 CA        -76.4146   24.5218  -73.6273 C.3       5 UNK         0.0783 
     46 C46       -77.2795   24.9756  -72.4242 C.3       11 UNK        -0.0857 
     47 S47       -76.2443   25.6892  -71.0996 S.3       11 UNK        -0.2512 
     48 C48       -77.1059   27.2426  -70.6910 C.3       11 UNK         0.0225 
     49 N         -77.0270   23.4128  -74.3599 N.am      5 UNK        -0.4615 
     50 C         -76.3302   22.4658  -75.0037 C.2       4 UNK         0.5053 
     51 O         -75.1022   22.3863  -74.9829 O.2       4 UNK        -0.5105 
     52 CA        -77.1296   21.4345  -75.8192 C.3       4 UNK         0.0263 
     53 CB        -77.4476   20.2004  -74.9597 C.3       4 UNK        -0.1981 
     54 N         -78.3735   21.9725  -76.3730 N.am      4 UNK        -0.4224 
     55 C         -78.4393   22.9261  -77.3128 C.2       3 UNK         0.4895 
     56 O         -77.4538   23.4309  -77.8503 O.2       3 UNK        -0.5091 
     57 CA        -79.8449   23.4272  -77.6868 C.3       3 UNK         0.0250 
     58 CB        -80.4314   22.5761  -78.8243 C.3       3 UNK        -0.1996 
     59 N         -80.7919   23.4652  -76.5647 N.am      3 UNK        -0.4254 
     60 C         -80.6228   24.1631  -75.4326 C.2       2 UNK         0.5004 
     61 O         -79.6001   24.7948  -75.1540 O.2       2 UNK        -0.5226 
     62 CA        -81.7643   24.1113  -74.4148 C.3       2 UNK         0.0269 
     63 CB        -81.4153   23.1413  -73.2735 C.3       2 UNK        -0.1926 
     64 N         -81.9466   25.4525  -73.8660 N.am      2 UNK        -0.4687 
     65 C         -83.0924   26.1478  -73.8898 C.2       1 UNK         0.5165 
     66 O         -84.1544   25.7030  -74.3286 O.2       1 UNK        -0.5079 
     67 H67       -82.2109   28.1999  -68.9289 H         1 UNK         0.0900 
     68 H68       -80.9887   27.3299  -69.8558 H         1 UNK         0.0900 
     69 H69       -80.8807   29.0836  -69.6809 H         1 UNK         0.0900 
     70 H70       -81.7098   26.7406  -71.8969 H         1 UNK         0.2959 
     71 H71       -84.0947   27.7869  -73.0209 H         1 UNK         0.1079 
     72 H72       -82.7989   29.6415  -73.8959 H         1 UNK         0.0837 
     73 H73       -83.2198   28.5909  -75.2054 H         1 UNK         0.0837 
     74 H74       -80.0583   30.7708  -74.4000 H         1 UNK         0.0685 
     75 H75       -80.6863   30.0605  -72.9326 H         1 UNK         0.0685 
     76 H76       -79.4011   28.2411  -71.7563 H         1 UNK         0.1434 
     77 H77       -75.1534   28.2886  -72.2919 H         1 UNK         0.1329 
     78 H78       -77.6797   30.5282  -74.9414 H         1 UNK         0.1335 
     79 H79       -75.3375   30.0061  -75.5504 H         1 UNK         0.0680 
     80 H80       -74.3052   29.1183  -74.4672 H         1 UNK         0.0680 
     81 H81       -73.5045   29.8774  -72.3126 H         1 UNK         0.1032 
     82 H82       -73.6668   31.4709  -71.6351 H         1 UNK         0.1032 
     83 H83       -71.6689   32.2506  -72.8635 H         1 UNK         0.0461 
     84 H84       -70.0675   29.2026  -72.3300 H         1 UNK         0.3453 
     85 H85       -69.6782   29.4972  -70.6534 H         1 UNK         0.3453 
     86 H86       -71.9749   29.9423  -74.4801 H         1 UNK         0.2984 
     87 H87       -70.4433   30.4488  -76.6607 H         1 UNK         0.0554 
     88 H88       -68.0907   31.1820  -76.4686 H         1 UNK         0.0847 
     89 H89       -68.1698   29.6082  -77.2372 H         1 UNK         0.0847 
     90 H90       -67.6789   29.7419  -75.5481 H         1 UNK         0.0847 
     91 H91       -69.4104   27.9607  -75.5069 H         1 UNK         0.3141 
     92 H92       -70.6337   26.0517  -76.0298 H         1 UNK         0.0743 
     93 H93       -72.5386   26.8297  -73.7494 H         1 UNK         0.0784 
     94 H94       -71.8796   25.2124  -73.9885 H         1 UNK         0.0784 
     95 H95       -70.8091   26.5553  -73.6223 H         1 UNK         0.0784 
     96 H96       -73.5720   26.0073  -75.8979 H         1 UNK         0.3213 
     97 H97       -74.0476   25.6562  -79.3528 H         1 UNK         0.0855 
     98 H98       -73.9221   23.1787  -77.5453 H         1 UNK         0.0814 
     99 H99       -73.0848   23.3610  -79.0815 H         1 UNK         0.0814 
    100 H100      -74.8401   23.3191  -79.0442 H         1 UNK         0.0814 
    101 H101      -75.7094   24.8376  -77.1742 H         1 UNK         0.3105 
    102 H102      -76.7385   27.9678  -76.0350 H         1 UNK         0.0547 
    103 H103      -78.3048   26.2187  -77.9911 H         1 UNK         0.0837 
    104 H104      -78.1696   27.9685  -78.0176 H         1 UNK         0.0837 
    105 H105      -79.0487   27.1826  -76.7156 H         1 UNK         0.0837 
    106 H106      -77.9106   25.5109  -75.4666 H         1 UNK         0.3020 
    107 H107      -75.4607   24.1639  -73.2310 H         1 UNK         0.1245 
    108 H108      -77.7931   24.1176  -71.9876 H         1 UNK         0.0781 
    109 H109      -78.0678   25.6651  -72.7318 H         1 UNK         0.0781 
    110 H110      -76.5476   27.7582  -69.9086 H         1 UNK         0.0836 
    111 H111      -78.0782   26.9977  -70.2606 H         1 UNK         0.0836 
    112 H112      -78.0299   23.4590  -74.4854 H         1 UNK         0.3022 
    113 H113      -76.5006   21.1183  -76.6543 H         1 UNK         0.0747 
    114 H114      -77.9422   19.4251  -75.5452 H         1 UNK         0.0793 
    115 H115      -76.5344   19.7632  -74.5531 H         1 UNK         0.0793 
    116 H116      -78.0930   20.4495  -74.1162 H         1 UNK         0.0793 
    117 H117      -79.2378   21.6138  -75.9942 H         1 UNK         0.3047 
    118 H118      -79.7410   24.4489  -78.0532 H         1 UNK         0.0822 
    119 H119      -81.3793   22.9827  -79.1773 H         1 UNK         0.0807 
    120 H120      -80.6024   21.5448  -78.5128 H         1 UNK         0.0807 
    121 H121      -79.7551   22.5498  -79.6802 H         1 UNK         0.0807 
    122 H122      -81.6564   22.9594  -76.6965 H         1 UNK         0.2946 
    123 H123      -82.6735   23.7663  -74.9129 H         1 UNK         0.1144 
    124 H124      -81.2690   22.1282  -73.6502 H         1 UNK         0.0793 
    125 H125      -82.2154   23.0989  -72.5344 H         1 UNK         0.0793 
    126 H126      -80.4999   23.4345  -72.7572 H         1 UNK         0.0793 
    127 H127      -81.0883   25.9384  -73.6408 H         1 UNK         0.2896 
@<TRIPOS>BOND
     1    1    2 1    
     2    1   67 1    
     3    1   68 1    
     4    1   69 1    
     5    2    3 2    
     6    2    4 am   BACKBONE|DICT|INTERRES
     7    4    5 1    
     8    4   70 1    
     9    5    6 1    
    10    5   65 1    
    11    5   71 1    
    12    6    7 1    
    13    6   72 1    
    14    6   73 1    
    15    7    8 1    
    16    8    9 1    
    17    8   74 1    
    18    8   75 1    
    19    9   10 ar   
    20    9   14 ar   
    21   10   11 ar   
    22   10   76 1    
    23   11   12 ar   
    24   11   48 1    
    25   12   13 ar   
    26   12   77 1    
    27   13   14 ar   
    28   13   15 1    
    29   14   78 1    
    30   15   16 1    
    31   15   79 1    
    32   15   80 1    
    33   16   17 1    
    34   17   18 1    
    35   17   81 1    
    36   17   82 1    
    37   18   19 1    
    38   18   22 1    
    39   18   83 1    
    40   19   20 am   BACKBONE|DICT|INTERRES
    41   19   21 2    
    42   20   84 1    
    43   20   85 1    
    44   22   23 am   BACKBONE|DICT|INTERRES
    45   22   86 1    
    46   23   24 2    
    47   23   25 1    
    48   25   26 1    
    49   25   27 1    
    50   25   87 1    
    51   26   88 1    
    52   26   89 1    
    53   26   90 1    
    54   27   28 am   BACKBONE|DICT|INTERRES
    55   27   91 1    
    56   28   29 2    
    57   28   30 1    
    58   30   31 1    
    59   30   32 1    
    60   30   92 1    
    61   31   93 1    
    62   31   94 1    
    63   31   95 1    
    64   32   33 am   BACKBONE|DICT|INTERRES
    65   32   96 1    
    66   33   34 2    
    67   33   35 1    
    68   35   36 1    
    69   35   37 1    
    70   35   97 1    
    71   36   98 1    
    72   36   99 1    
    73   36  100 1    
    74   37   38 am   BACKBONE|DICT|INTERRES
    75   37  101 1    
    76   38   39 2    
    77   38   40 1    
    78   40   41 1    
    79   40   42 1    
    80   40  102 1    
    81   41  103 1    
    82   41  104 1    
    83   41  105 1    
    84   42   43 am   BACKBONE|DICT|INTERRES
    85   42  106 1    
    86   43   44 2    
    87   43   45 1    
    88   45   46 1    
    89   45   49 1    
    90   45  107 1    
    91   46   47 1    
    92   46  108 1    
    93   46  109 1    
    94   47   48 1    
    95   48  110 1    
    96   48  111 1    
    97   49   50 am   BACKBONE|DICT|INTERRES
    98   49  112 1    
    99   50   51 2    
   100   50   52 1    
   101   52   53 1    
   102   52   54 1    
   103   52  113 1    
   104   53  114 1    
   105   53  115 1    
   106   53  116 1    
   107   54   55 am   BACKBONE|DICT|INTERRES
   108   54  117 1    
   109   55   56 2    
   110   55   57 1    
   111   57   58 1    
   112   57   59 1    
   113   57  118 1    
   114   58  119 1    
   115   58  120 1    
   116   58  121 1    
   117   59   60 am   BACKBONE|DICT|INTERRES
   118   59  122 1    
   119   60   61 2    
   120   60   62 1    
   121   62   63 1    
   122   62   64 1    
   123   62  123 1    
   124   63  124 1    
   125   63  125 1    
   126   63  126 1    
   127   64   65 am   BACKBONE|DICT|INTERRES
   128   64  127 1    
   129   65   66 2    
@<TRIPOS>SUBSTRUCTURE
     1 UNK         1 GROUP             0       ****    0 ROOT    
