@<TRIPOS>MOLECULE
3R135
127   129    1
SMALL
USER_CHARGES


@<TRIPOS>ATOM
      1 CA        -79.7161   21.3220  -72.2663 C.3       0 UNK        -0.1998 
      2 C         -79.6640   22.8398  -72.3465 C.2       0 UNK         0.4909 
      3 O         -78.6619   23.3883  -72.8011 O.2       0 UNK        -0.5240 
      4 N         -80.7434   23.5138  -71.9249 N.am      1 UNK        -0.4739 
      5 CA        -80.9132   24.9740  -71.8833 C.3       1 UNK         0.0864 
      6 C6        -80.1236   25.6367  -70.7195 C.3       11 UNK        -0.0881 
      7 S7        -81.0661   27.0167  -69.9880 S.3       11 UNK        -0.2682 
      8 C8        -79.7413   28.0951  -69.3557 C.3       11 UNK         0.0289 
      9 C9        -78.9870   28.8305  -70.4572 C.ar      11 UNK        -0.0687 
     10 C10       -79.6740   29.6166  -71.3884 C.ar      11 UNK        -0.0823 
     11 C11       -78.9846   30.3194  -72.3818 C.ar      11 UNK        -0.0830 
     12 C12       -77.5875   30.2505  -72.4151 C.ar      11 UNK        -0.1021 
     13 C13       -76.8861   29.4607  -71.4979 C.ar      11 UNK        -0.0753 
     14 C14       -77.5932   28.7521  -70.5229 C.ar      11 UNK        -0.0933 
     15 C15       -75.3728   29.3207  -71.5897 C.3       11 UNK         0.0166 
     16 S16       -74.5063   30.9202  -71.6955 S.3       11 UNK        -0.2615 
     17 C17       -72.8146   30.3352  -72.0498 C.3       11 UNK        -0.0865 
     18 CA        -72.6360   29.9066  -73.5399 C.3       10 UNK         0.0862 
     19 C         -72.2295   31.0762  -74.4773 C.2       10 UNK         0.5551 
     20 N         -72.9712   32.1742  -74.4617 N.am      10 UNK        -0.7319 
     21 O         -71.2501   30.9995  -75.2187 O.2       10 UNK        -0.5018 
     22 N         -71.7289   28.7661  -73.7110 N.am      10 UNK        -0.4509 
     23 C         -71.9312   27.5179  -73.2777 C.2       10 UNK         0.4899 
     24 O         -72.8723   27.1806  -72.5596 O.2       10 UNK        -0.4839 
     25 CA        -70.8829   26.4822  -73.7165 C.3       9 UNK         0.0222 
     26 CB        -70.2284   25.7713  -72.5142 C.3       9 UNK        -0.1966 
     27 N         -71.4377   25.5378  -74.6925 N.am      9 UNK        -0.4218 
     28 C         -72.3342   24.5568  -74.5188 C.2       9 UNK         0.5020 
     29 O         -72.7878   24.2079  -73.4279 O.2       9 UNK        -0.5274 
     30 CA        -72.7839   23.8224  -75.8012 C.3       8 UNK         0.0270 
     31 CB        -73.7524   22.6572  -75.5164 C.3       8 UNK        -0.1976 
     32 N         -73.3770   24.7101  -76.8141 N.am      8 UNK        -0.4313 
     33 C         -72.6692   25.5157  -77.6190 C.2       8 UNK         0.5041 
     34 O         -71.4569   25.6949  -77.4817 O.2       8 UNK        -0.5577 
     35 CA        -73.3670   26.2013  -78.8029 C.3       7 UNK         0.0284 
     36 CB        -73.1571   25.3561  -80.0773 C.3       7 UNK        -0.1958 
     37 N         -74.7944   26.4933  -78.6187 N.am      7 UNK        -0.4454 
     38 C         -75.4501   27.3896  -79.3732 C.2       7 UNK         0.5089 
     39 O         -74.9048   28.1024  -80.2179 O.2       7 UNK        -0.5125 
     40 CA        -76.9713   27.5056  -79.1887 C.3       6 UNK         0.0408 
     41 CB        -77.6858   26.2700  -79.7598 C.3       6 UNK        -0.1791 
     42 N         -77.3696   27.7215  -77.7995 N.am      6 UNK        -0.4762 
     43 C         -77.1277   28.8393  -77.0986 C.2       6 UNK         0.5007 
     44 O         -76.5629   29.8296  -77.5652 O.2       6 UNK        -0.5032 
     45 CA        -77.5756   28.8480  -75.6215 C.3       5 UNK         0.0783 
     46 C46       -79.0440   29.3255  -75.4555 C.3       11 UNK        -0.0857 
     47 S47       -79.1235   31.1140  -75.1029 S.3       11 UNK        -0.2512 
     48 C48       -79.7722   31.1550  -73.3921 C.3       11 UNK         0.0225 
     49 N         -77.3338   27.5669  -74.9561 N.am      5 UNK        -0.4615 
     50 C         -76.1160   27.0440  -74.7572 C.2       4 UNK         0.5053 
     51 O         -75.0666   27.5944  -75.0879 O.2       4 UNK        -0.5105 
     52 CA        -76.0692   25.6446  -74.1330 C.3       4 UNK         0.0263 
     53 CB        -76.2795   25.7127  -72.6134 C.3       4 UNK        -0.1981 
     54 N         -77.0488   24.7392  -74.7351 N.am      4 UNK        -0.4224 
     55 C         -77.0546   24.3711  -76.0249 C.2       3 UNK         0.4895 
     56 O         -76.1886   24.6977  -76.8402 O.2       3 UNK        -0.5091 
     57 CA        -78.2460   23.5245  -76.4948 C.3       3 UNK         0.0250 
     58 CB        -78.0612   22.0513  -76.0977 C.3       3 UNK        -0.1996 
     59 N         -79.5232   24.0302  -75.9842 N.am      3 UNK        -0.4254 
     60 C         -80.0586   25.2116  -76.3272 C.2       2 UNK         0.5004 
     61 O         -79.5435   25.9891  -77.1273 O.2       2 UNK        -0.5226 
     62 CA        -81.3762   25.6127  -75.6467 C.3       2 UNK         0.0269 
     63 CB        -82.5790   25.0735  -76.4368 C.3       2 UNK        -0.1926 
     64 N         -81.4633   25.1680  -74.2543 N.am      2 UNK        -0.4687 
     65 C         -80.6817   25.6267  -73.2658 C.2       1 UNK         0.5165 
     66 O         -79.7968   26.4679  -73.4380 O.2       1 UNK        -0.5079 
     67 H67       -79.6554   20.8907  -73.2649 H         1 UNK         0.0900 
     68 H68       -78.8740   20.9504  -71.6832 H         1 UNK         0.0900 
     69 H69       -80.6344   20.9685  -71.7980 H         1 UNK         0.0900 
     70 H70       -81.5348   22.9867  -71.5816 H         1 UNK         0.2959 
     71 H71       -81.9769   25.1099  -71.6792 H         1 UNK         0.1079 
     72 H72       -79.9544   24.9155  -69.9186 H         1 UNK         0.0837 
     73 H73       -79.1307   25.9645  -71.0288 H         1 UNK         0.0837 
     74 H74       -80.1850   28.8351  -68.6885 H         1 UNK         0.0685 
     75 H75       -79.0626   27.4986  -68.7438 H         1 UNK         0.0685 
     76 H76       -80.7526   29.6751  -71.3380 H         1 UNK         0.1434 
     77 H77       -77.0408   30.8024  -73.1660 H         1 UNK         0.1329 
     78 H78       -77.0569   28.1381  -69.8124 H         1 UNK         0.1335 
     79 H79       -74.9800   28.7657  -70.7363 H         1 UNK         0.0680 
     80 H80       -75.1460   28.7263  -72.4735 H         1 UNK         0.0680 
     81 H81       -72.1007   31.1141  -71.7753 H         1 UNK         0.1032 
     82 H82       -72.6053   29.5106  -71.3679 H         1 UNK         0.1032 
     83 H83       -73.5921   29.5599  -73.9331 H         1 UNK         0.0461 
     84 H84       -73.7637   32.2450  -73.8413 H         1 UNK         0.3453 
     85 H85       -72.7269   32.9459  -75.0622 H         1 UNK         0.3453 
     86 H86       -70.9378   28.9695  -74.3091 H         1 UNK         0.2984 
     87 H87       -70.0860   27.0080  -74.2451 H         1 UNK         0.0554 
     88 H88       -69.7132   26.4898  -71.8758 H         1 UNK         0.0847 
     89 H89       -69.4915   25.0368  -72.8386 H         1 UNK         0.0847 
     90 H90       -70.9616   25.2592  -71.8904 H         1 UNK         0.0847 
     91 H91       -71.1947   25.7252  -75.6653 H         1 UNK         0.3141 
     92 H92       -71.8832   23.3796  -76.2324 H         1 UNK         0.0743 
     93 H93       -74.6622   22.9923  -75.0203 H         1 UNK         0.0784 
     94 H94       -74.0397   22.1431  -76.4337 H         1 UNK         0.0784 
     95 H95       -73.2864   21.9172  -74.8645 H         1 UNK         0.0784 
     96 H96       -74.3858   24.6403  -76.9297 H         1 UNK         0.3213 
     97 H97       -72.8466   27.1526  -78.9366 H         1 UNK         0.0855 
     98 H98       -73.7168   24.4211  -80.0330 H         1 UNK         0.0814 
     99 H99       -72.1050   25.1007  -80.2123 H         1 UNK         0.0814 
    100 H100      -73.4693   25.8906  -80.9743 H         1 UNK         0.0814 
    101 H101      -75.3130   25.9532  -77.9299 H         1 UNK         0.3105 
    102 H102      -77.3071   28.3712  -79.7637 H         1 UNK         0.0547 
    103 H103      -78.7683   26.3971  -79.7444 H         1 UNK         0.0837 
    104 H104      -77.4485   25.3664  -79.1983 H         1 UNK         0.0837 
    105 H105      -77.3962   26.0952  -80.7967 H         1 UNK         0.0837 
    106 H106      -77.9140   26.9807  -77.3646 H         1 UNK         0.3020 
    107 H107      -76.9139   29.5574  -75.1211 H         1 UNK         0.1245 
    108 H108      -79.5339   28.7963  -74.6377 H         1 UNK         0.0781 
    109 H109      -79.6501   29.1047  -76.3366 H         1 UNK         0.0781 
    110 H110      -80.8128   30.8278  -73.4211 H         1 UNK         0.0836 
    111 H111      -79.7861   32.1904  -73.0498 H         1 UNK         0.0836 
    112 H112      -78.1466   27.0651  -74.6137 H         1 UNK         0.3022 
    113 H113      -75.0792   25.2342  -74.3197 H         1 UNK         0.0747 
    114 H114      -76.2467   24.7208  -72.1629 H         1 UNK         0.0793 
    115 H115      -75.4971   26.3073  -72.1411 H         1 UNK         0.0793 
    116 H116      -77.2366   26.1680  -72.3603 H         1 UNK         0.0793 
    117 H117      -77.7714   24.3774  -74.1147 H         1 UNK         0.3047 
    118 H118      -78.2794   23.5785  -77.5850 H         1 UNK         0.0822 
    119 H119      -78.8755   21.4325  -76.4749 H         1 UNK         0.0807 
    120 H120      -78.0134   21.9230  -75.0162 H         1 UNK         0.0807 
    121 H121      -77.1338   21.6525  -76.5115 H         1 UNK         0.0807 
    122 H122      -79.9968   23.4714  -75.2903 H         1 UNK         0.2946 
    123 H123      -81.4229   26.7045  -75.6537 H         1 UNK         0.1144 
    124 H124      -83.5207   25.4263  -76.0160 H         1 UNK         0.0793 
    125 H125      -82.6020   23.9831  -76.4473 H         1 UNK         0.0793 
    126 H126      -82.5446   25.4088  -77.4745 H         1 UNK         0.0793 
    127 H127      -82.1507   24.4592  -74.0413 H         1 UNK         0.2896 
@<TRIPOS>BOND
     1    1    2 1    
     2    1   67 1    
     3    1   68 1    
     4    1   69 1    
     5    2    3 2    
     6    2    4 am   BACKBONE|DICT|INTERRES
     7    4    5 1    
     8    4   70 1    
     9    5    6 1    
    10    5   65 1    
    11    5   71 1    
    12    6    7 1    
    13    6   72 1    
    14    6   73 1    
    15    7    8 1    
    16    8    9 1    
    17    8   74 1    
    18    8   75 1    
    19    9   10 ar   
    20    9   14 ar   
    21   10   11 ar   
    22   10   76 1    
    23   11   12 ar   
    24   11   48 1    
    25   12   13 ar   
    26   12   77 1    
    27   13   14 ar   
    28   13   15 1    
    29   14   78 1    
    30   15   16 1    
    31   15   79 1    
    32   15   80 1    
    33   16   17 1    
    34   17   18 1    
    35   17   81 1    
    36   17   82 1    
    37   18   19 1    
    38   18   22 1    
    39   18   83 1    
    40   19   20 am   BACKBONE|DICT|INTERRES
    41   19   21 2    
    42   20   84 1    
    43   20   85 1    
    44   22   23 am   BACKBONE|DICT|INTERRES
    45   22   86 1    
    46   23   24 2    
    47   23   25 1    
    48   25   26 1    
    49   25   27 1    
    50   25   87 1    
    51   26   88 1    
    52   26   89 1    
    53   26   90 1    
    54   27   28 am   BACKBONE|DICT|INTERRES
    55   27   91 1    
    56   28   29 2    
    57   28   30 1    
    58   30   31 1    
    59   30   32 1    
    60   30   92 1    
    61   31   93 1    
    62   31   94 1    
    63   31   95 1    
    64   32   33 am   BACKBONE|DICT|INTERRES
    65   32   96 1    
    66   33   34 2    
    67   33   35 1    
    68   35   36 1    
    69   35   37 1    
    70   35   97 1    
    71   36   98 1    
    72   36   99 1    
    73   36  100 1    
    74   37   38 am   BACKBONE|DICT|INTERRES
    75   37  101 1    
    76   38   39 2    
    77   38   40 1    
    78   40   41 1    
    79   40   42 1    
    80   40  102 1    
    81   41  103 1    
    82   41  104 1    
    83   41  105 1    
    84   42   43 am   BACKBONE|DICT|INTERRES
    85   42  106 1    
    86   43   44 2    
    87   43   45 1    
    88   45   46 1    
    89   45   49 1    
    90   45  107 1    
    91   46   47 1    
    92   46  108 1    
    93   46  109 1    
    94   47   48 1    
    95   48  110 1    
    96   48  111 1    
    97   49   50 am   BACKBONE|DICT|INTERRES
    98   49  112 1    
    99   50   51 2    
   100   50   52 1    
   101   52   53 1    
   102   52   54 1    
   103   52  113 1    
   104   53  114 1    
   105   53  115 1    
   106   53  116 1    
   107   54   55 am   BACKBONE|DICT|INTERRES
   108   54  117 1    
   109   55   56 2    
   110   55   57 1    
   111   57   58 1    
   112   57   59 1    
   113   57  118 1    
   114   58  119 1    
   115   58  120 1    
   116   58  121 1    
   117   59   60 am   BACKBONE|DICT|INTERRES
   118   59  122 1    
   119   60   61 2    
   120   60   62 1    
   121   62   63 1    
   122   62   64 1    
   123   62  123 1    
   124   63  124 1    
   125   63  125 1    
   126   63  126 1    
   127   64   65 am   BACKBONE|DICT|INTERRES
   128   64  127 1    
   129   65   66 2    
@<TRIPOS>SUBSTRUCTURE
     1 UNK         1 GROUP             0       ****    0 ROOT    
