@<TRIPOS>MOLECULE
3R135
127   129    1
SMALL
USER_CHARGES


@<TRIPOS>ATOM
      1 CA        -81.6503   22.3952  -73.4470 C.3       0 UNK        -0.1998 
      2 C         -81.2458   23.8582  -73.3529 C.2       0 UNK         0.4909 
      3 O         -80.2096   24.2409  -73.9060 O.2       0 UNK        -0.5240 
      4 N         -82.0662   24.6688  -72.6698 N.am      1 UNK        -0.4739 
      5 CA        -81.8951   26.1063  -72.4301 C.3       1 UNK         0.0864 
      6 C6        -80.7171   26.4038  -71.4603 C.3       11 UNK        -0.0881 
      7 S7        -80.9878   27.9037  -70.4518 S.3       11 UNK        -0.2682 
      8 C8        -80.1212   29.2240  -71.3774 C.3       11 UNK         0.0289 
      9 C9        -78.6524   28.9507  -71.7037 C.ar      11 UNK        -0.0687 
     10 C10       -77.8565   28.1248  -70.9019 C.ar      11 UNK        -0.0823 
     11 C11       -76.5297   27.8569  -71.2464 C.ar      11 UNK        -0.0830 
     12 C12       -75.9734   28.4677  -72.3732 C.ar      11 UNK        -0.1021 
     13 C13       -76.7462   29.3184  -73.1685 C.ar      11 UNK        -0.0753 
     14 C14       -78.0836   29.5493  -72.8325 C.ar      11 UNK        -0.0933 
     15 C15       -76.1453   29.9675  -74.4061 C.3       11 UNK         0.0166 
     16 S16       -75.8859   31.7575  -74.1929 S.3       11 UNK        -0.2615 
     17 C17       -74.5736   31.8154  -72.9219 C.3       11 UNK        -0.0865 
     18 CA        -73.1923   32.2628  -73.4910 C.3       10 UNK         0.0862 
     19 C         -72.1064   32.5189  -72.3978 C.2       10 UNK         0.5551 
     20 N         -72.4816   32.9778  -71.2105 N.am      10 UNK        -0.7319 
     21 O         -70.9088   32.3638  -72.6322 O.2       10 UNK        -0.5018 
     22 N         -72.7162   31.3958  -74.5841 N.am      10 UNK        -0.4509 
     23 C         -72.3678   30.1068  -74.4752 C.2       10 UNK         0.4899 
     24 O         -72.4579   29.4580  -73.4307 O.2       10 UNK        -0.4839 
     25 CA        -71.8811   29.4446  -75.7799 C.3       9 UNK         0.0222 
     26 CB        -70.5919   30.1028  -76.3183 C.3       9 UNK        -0.1966 
     27 N         -71.7333   27.9875  -75.6725 N.am      9 UNK        -0.4218 
     28 C         -70.8349   27.2836  -74.9626 C.2       9 UNK         0.5020 
     29 O         -69.8929   27.7837  -74.3452 O.2       9 UNK        -0.5274 
     30 CA        -71.0023   25.7514  -74.9290 C.3       8 UNK         0.0270 
     31 CB        -71.3472   25.2752  -73.5065 C.3       8 UNK        -0.1976 
     32 N         -72.0352   25.2762  -75.8540 N.am      8 UNK        -0.4313 
     33 C         -71.8141   24.9389  -77.1334 C.2       8 UNK         0.5041 
     34 O         -70.6960   24.9253  -77.6496 O.2       8 UNK        -0.5577 
     35 CA        -73.0356   24.5660  -77.9976 C.3       7 UNK         0.0284 
     36 CB        -73.1820   23.0387  -78.0866 C.3       7 UNK        -0.1958 
     37 N         -74.2959   25.1451  -77.5234 N.am      7 UNK        -0.4454 
     38 C         -74.5727   26.4584  -77.5072 C.2       7 UNK         0.5089 
     39 O         -73.8101   27.3194  -77.9441 O.2       7 UNK        -0.5125 
     40 CA        -75.8843   26.9007  -76.8291 C.3       6 UNK         0.0408 
     41 CB        -76.9904   27.0861  -77.8778 C.3       6 UNK        -0.1791 
     42 N         -76.3510   25.9972  -75.7698 N.am      6 UNK        -0.4762 
     43 C         -75.6294   25.6206  -74.7005 C.2       6 UNK         0.5007 
     44 O         -74.5069   26.0668  -74.4673 O.2       6 UNK        -0.5032 
     45 CA        -76.1975   24.4850  -73.8148 C.3       5 UNK         0.0783 
     46 C46       -76.6550   24.9630  -72.4142 C.3       11 UNK        -0.0857 
     47 S47       -75.2287   25.3674  -71.3347 S.3       11 UNK        -0.2512 
     48 C48       -75.7226   26.8692  -70.4164 C.3       11 UNK         0.0225 
     49 N         -77.2462   23.7132  -74.4947 N.am      5 UNK        -0.4615 
     50 C         -77.0145   22.8878  -75.5279 C.2       4 UNK         0.5053 
     51 O         -75.9029   22.7171  -76.0277 O.2       4 UNK        -0.5105 
     52 CA        -78.2305   22.1818  -76.1344 C.3       4 UNK         0.0263 
     53 CB        -78.7148   21.0487  -75.2152 C.3       4 UNK        -0.1981 
     54 N         -79.3124   23.1408  -76.3587 N.am      4 UNK        -0.4224 
     55 C         -79.5359   23.7714  -77.5191 C.2       3 UNK         0.4895 
     56 O         -78.8677   23.5963  -78.5378 O.2       3 UNK        -0.5091 
     57 CA        -80.6820   24.7876  -77.5419 C.3       3 UNK         0.0250 
     58 CB        -82.0503   24.1010  -77.3846 C.3       3 UNK        -0.1996 
     59 N         -80.5044   25.7910  -76.4917 N.am      3 UNK        -0.4254 
     60 C         -80.5863   27.1158  -76.6781 C.2       2 UNK         0.5004 
     61 O         -80.8155   27.6386  -77.7700 O.2       2 UNK        -0.5226 
     62 CA        -80.3493   28.0111  -75.4432 C.3       2 UNK         0.0269 
     63 CB        -81.0615   29.3768  -75.5508 C.3       2 UNK        -0.1926 
     64 N         -80.6659   27.3493  -74.1709 N.am      2 UNK        -0.4687 
     65 C         -81.8572   26.8796  -73.7666 C.2       1 UNK         0.5165 
     66 O         -82.8988   26.9932  -74.4149 O.2       1 UNK        -0.5079 
     67 H67       -80.9720   21.7819  -72.8549 H         1 UNK         0.0900 
     68 H68       -81.6099   22.0526  -74.4801 H         1 UNK         0.0900 
     69 H69       -82.6626   22.2294  -73.0791 H         1 UNK         0.0900 
     70 H70       -82.9137   24.2784  -72.2811 H         1 UNK         0.2959 
     71 H71       -82.8174   26.4190  -71.9370 H         1 UNK         0.1079 
     72 H72       -80.6409   25.5889  -70.7385 H         1 UNK         0.0837 
     73 H73       -79.7470   26.4095  -71.9554 H         1 UNK         0.0837 
     74 H74       -80.6795   29.4210  -72.2927 H         1 UNK         0.0685 
     75 H75       -80.1731   30.1412  -70.7897 H         1 UNK         0.0685 
     76 H76       -78.2774   27.6592  -70.0220 H         1 UNK         0.1434 
     77 H77       -74.9459   28.2591  -72.6427 H         1 UNK         0.1329 
     78 H78       -78.6800   30.2033  -73.4539 H         1 UNK         0.1335 
     79 H79       -75.2005   29.4927  -74.6710 H         1 UNK         0.0680 
     80 H80       -76.8151   29.8097  -75.2525 H         1 UNK         0.0680 
     81 H81       -74.4868   30.8532  -72.4169 H         1 UNK         0.1032 
     82 H82       -74.9226   32.5155  -72.1625 H         1 UNK         0.1032 
     83 H83       -73.3385   33.2387  -73.9551 H         1 UNK         0.0461 
     84 H84       -71.7743   33.1629  -70.5163 H         1 UNK         0.3453 
     85 H85       -73.4497   33.1510  -70.9932 H         1 UNK         0.3453 
     86 H86       -72.6043   31.8531  -75.4769 H         1 UNK         0.2984 
     87 H87       -72.6679   29.5981  -76.5202 H         1 UNK         0.0554 
     88 H88       -70.2259   29.5901  -77.2079 H         1 UNK         0.0847 
     89 H89       -69.7927   30.0996  -75.5764 H         1 UNK         0.0847 
     90 H90       -70.7642   31.1425  -76.5972 H         1 UNK         0.0847 
     91 H91       -72.4536   27.4605  -76.1487 H         1 UNK         0.3141 
     92 H92       -70.0405   25.3130  -75.2037 H         1 UNK         0.0743 
     93 H93       -72.2623   25.7372  -73.1341 H         1 UNK         0.0784 
     94 H94       -71.4761   24.1935  -73.4676 H         1 UNK         0.0784 
     95 H95       -70.5505   25.5316  -72.8071 H         1 UNK         0.0784 
     96 H96       -72.9881   25.3073  -75.5025 H         1 UNK         0.3213 
     97 H97       -72.8515   24.9506  -79.0032 H         1 UNK         0.0855 
     98 H98       -73.3601   22.5929  -77.1071 H         1 UNK         0.0814 
     99 H99       -72.2774   22.5831  -78.4918 H         1 UNK         0.0814 
    100 H100      -74.0077   22.7545  -78.7393 H         1 UNK         0.0814 
    101 H101      -74.9675   24.5005  -77.1237 H         1 UNK         0.3105 
    102 H102      -75.6885   27.8693  -76.3687 H         1 UNK         0.0547 
    103 H103      -76.6427   27.7000  -78.7101 H         1 UNK         0.0837 
    104 H104      -77.3229   26.1340  -78.2934 H         1 UNK         0.0837 
    105 H105      -77.8540   27.5943  -77.4542 H         1 UNK         0.0837 
    106 H106      -77.2472   25.5558  -75.9086 H         1 UNK         0.3020 
    107 H107      -75.3650   23.7936  -73.6604 H         1 UNK         0.1245 
    108 H108      -77.2098   24.1681  -71.9131 H         1 UNK         0.0781 
    109 H109      -77.3551   25.7912  -72.5096 H         1 UNK         0.0781 
    110 H110      -74.8249   27.3651  -70.0449 H         1 UNK         0.0836 
    111 H111      -76.2838   26.5597  -69.5335 H         1 UNK         0.0836 
    112 H112      -78.1927   23.8245  -74.1476 H         1 UNK         0.3022 
    113 H113      -77.9257   21.7345  -77.0833 H         1 UNK         0.0747 
    114 H114      -79.5902   20.5487  -75.6298 H         1 UNK         0.0793 
    115 H115      -77.9385   20.2923  -75.0925 H         1 UNK         0.0793 
    116 H116      -78.9730   21.4102  -74.2199 H         1 UNK         0.0793 
    117 H117      -79.8621   23.3966  -75.5449 H         1 UNK         0.3047 
    118 H118      -80.6580   25.2631  -78.5251 H         1 UNK         0.0822 
    119 H119      -82.8629   24.8174  -77.5070 H         1 UNK         0.0807 
    120 H120      -82.1666   23.6351  -76.4063 H         1 UNK         0.0807 
    121 H121      -82.1877   23.3238  -78.1377 H         1 UNK         0.0807 
    122 H122      -80.3244   25.4488  -75.5541 H         1 UNK         0.2946 
    123 H123      -79.2758   28.2061  -75.4232 H         1 UNK         0.1144 
    124 H124      -80.8726   29.9975  -74.6759 H         1 UNK         0.0793 
    125 H125      -82.1409   29.2639  -75.6550 H         1 UNK         0.0793 
    126 H126      -80.7097   29.9341  -76.4199 H         1 UNK         0.0793 
    127 H127      -79.8754   27.1813  -73.5648 H         1 UNK         0.2896 
@<TRIPOS>BOND
     1    1    2 1    
     2    1   67 1    
     3    1   68 1    
     4    1   69 1    
     5    2    3 2    
     6    2    4 am   BACKBONE|DICT|INTERRES
     7    4    5 1    
     8    4   70 1    
     9    5    6 1    
    10    5   65 1    
    11    5   71 1    
    12    6    7 1    
    13    6   72 1    
    14    6   73 1    
    15    7    8 1    
    16    8    9 1    
    17    8   74 1    
    18    8   75 1    
    19    9   10 ar   
    20    9   14 ar   
    21   10   11 ar   
    22   10   76 1    
    23   11   12 ar   
    24   11   48 1    
    25   12   13 ar   
    26   12   77 1    
    27   13   14 ar   
    28   13   15 1    
    29   14   78 1    
    30   15   16 1    
    31   15   79 1    
    32   15   80 1    
    33   16   17 1    
    34   17   18 1    
    35   17   81 1    
    36   17   82 1    
    37   18   19 1    
    38   18   22 1    
    39   18   83 1    
    40   19   20 am   BACKBONE|DICT|INTERRES
    41   19   21 2    
    42   20   84 1    
    43   20   85 1    
    44   22   23 am   BACKBONE|DICT|INTERRES
    45   22   86 1    
    46   23   24 2    
    47   23   25 1    
    48   25   26 1    
    49   25   27 1    
    50   25   87 1    
    51   26   88 1    
    52   26   89 1    
    53   26   90 1    
    54   27   28 am   BACKBONE|DICT|INTERRES
    55   27   91 1    
    56   28   29 2    
    57   28   30 1    
    58   30   31 1    
    59   30   32 1    
    60   30   92 1    
    61   31   93 1    
    62   31   94 1    
    63   31   95 1    
    64   32   33 am   BACKBONE|DICT|INTERRES
    65   32   96 1    
    66   33   34 2    
    67   33   35 1    
    68   35   36 1    
    69   35   37 1    
    70   35   97 1    
    71   36   98 1    
    72   36   99 1    
    73   36  100 1    
    74   37   38 am   BACKBONE|DICT|INTERRES
    75   37  101 1    
    76   38   39 2    
    77   38   40 1    
    78   40   41 1    
    79   40   42 1    
    80   40  102 1    
    81   41  103 1    
    82   41  104 1    
    83   41  105 1    
    84   42   43 am   BACKBONE|DICT|INTERRES
    85   42  106 1    
    86   43   44 2    
    87   43   45 1    
    88   45   46 1    
    89   45   49 1    
    90   45  107 1    
    91   46   47 1    
    92   46  108 1    
    93   46  109 1    
    94   47   48 1    
    95   48  110 1    
    96   48  111 1    
    97   49   50 am   BACKBONE|DICT|INTERRES
    98   49  112 1    
    99   50   51 2    
   100   50   52 1    
   101   52   53 1    
   102   52   54 1    
   103   52  113 1    
   104   53  114 1    
   105   53  115 1    
   106   53  116 1    
   107   54   55 am   BACKBONE|DICT|INTERRES
   108   54  117 1    
   109   55   56 2    
   110   55   57 1    
   111   57   58 1    
   112   57   59 1    
   113   57  118 1    
   114   58  119 1    
   115   58  120 1    
   116   58  121 1    
   117   59   60 am   BACKBONE|DICT|INTERRES
   118   59  122 1    
   119   60   61 2    
   120   60   62 1    
   121   62   63 1    
   122   62   64 1    
   123   62  123 1    
   124   63  124 1    
   125   63  125 1    
   126   63  126 1    
   127   64   65 am   BACKBONE|DICT|INTERRES
   128   64  127 1    
   129   65   66 2    
@<TRIPOS>SUBSTRUCTURE
     1 UNK         1 GROUP             0       ****    0 ROOT    
