@<TRIPOS>MOLECULE
3R135
127   129    1
SMALL
USER_CHARGES


@<TRIPOS>ATOM
      1 CA        -84.4809   26.8998  -71.3271 C.3       0 UNK        -0.1998 
      2 C         -83.2720   27.1479  -72.2159 C.2       0 UNK         0.4909 
      3 O         -83.4292   27.5529  -73.3688 O.2       0 UNK        -0.5240 
      4 N         -82.0629   26.9068  -71.6940 N.am      1 UNK        -0.4739 
      5 CA        -80.7889   27.0793  -72.4001 C.3       1 UNK         0.0864 
      6 C6        -79.6094   27.3526  -71.4265 C.3       11 UNK        -0.0881 
      7 S7        -79.9287   28.6650  -70.1925 S.3       11 UNK        -0.2682 
      8 C8        -79.9898   30.1875  -71.1949 C.3       11 UNK         0.0289 
      9 C9        -78.7123   30.4270  -71.9872 C.ar      11 UNK        -0.0687 
     10 C10       -78.7591   30.5117  -73.3808 C.ar      11 UNK        -0.0823 
     11 C11       -77.5880   30.6897  -74.1275 C.ar      11 UNK        -0.0830 
     12 C12       -76.3666   30.8116  -73.4560 C.ar      11 UNK        -0.1021 
     13 C13       -76.3083   30.7584  -72.0595 C.ar      11 UNK        -0.0753 
     14 C14       -77.4869   30.5717  -71.3315 C.ar      11 UNK        -0.0933 
     15 C15       -74.9744   30.9174  -71.3381 C.3       11 UNK         0.0166 
     16 S16       -74.5677   29.4821  -70.2902 S.3       11 UNK        -0.2615 
     17 C17       -74.4133   28.1483  -71.5251 C.3       11 UNK        -0.0865 
     18 CA        -72.9964   27.5158  -71.5590 C.3       10 UNK         0.0862 
     19 C         -72.8034   26.4622  -70.4307 C.2       10 UNK         0.5551 
     20 N         -72.3817   26.8896  -69.2488 N.am      10 UNK        -0.7319 
     21 O         -73.0620   25.2732  -70.6066 O.2       10 UNK        -0.5018 
     22 N         -72.7081   26.9920  -72.8998 N.am      10 UNK        -0.4509 
     23 C         -71.5304   26.5174  -73.3236 C.2       10 UNK         0.4899 
     24 O         -70.5127   26.4655  -72.6319 O.2       10 UNK        -0.4839 
     25 CA        -71.4681   26.0612  -74.7928 C.3       9 UNK         0.0222 
     26 CB        -71.9852   24.6215  -74.9425 C.3       9 UNK        -0.1966 
     27 N         -72.2073   26.9428  -75.7024 N.am      9 UNK        -0.4218 
     28 C         -71.9087   28.2307  -75.9339 C.2       9 UNK         0.5020 
     29 O         -70.9581   28.8171  -75.4115 O.2       9 UNK        -0.5274 
     30 CA        -72.8230   28.9811  -76.9238 C.3       8 UNK         0.0270 
     31 CB        -72.2680   30.3607  -77.3370 C.3       8 UNK        -0.1976 
     32 N         -73.1656   28.1872  -78.1102 N.am      8 UNK        -0.4313 
     33 C         -72.3222   27.6118  -78.9847 C.2       8 UNK         0.5041 
     34 O         -71.0970   27.7307  -78.9285 O.2       8 UNK        -0.5577 
     35 CA        -72.9357   26.7728  -80.1293 C.3       7 UNK         0.0284 
     36 CB        -72.0952   25.5157  -80.4427 C.3       7 UNK        -0.1958 
     37 N         -74.3503   26.4192  -79.9399 N.am      7 UNK        -0.4454 
     38 C         -74.8773   25.6675  -78.9633 C.2       7 UNK         0.5089 
     39 O         -74.2231   25.1188  -78.0742 O.2       7 UNK        -0.5125 
     40 CA        -76.4143   25.5820  -78.9439 C.3       6 UNK         0.0408 
     41 CB        -76.8865   24.1355  -79.1579 C.3       6 UNK        -0.1791 
     42 N         -76.9707   26.0926  -77.6894 N.am      6 UNK        -0.4762 
     43 C         -76.7199   27.2951  -77.1478 C.2       6 UNK         0.5007 
     44 O         -76.0332   28.1623  -77.6907 O.2       6 UNK        -0.5032 
     45 CA        -77.2982   27.5558  -75.7452 C.3       5 UNK         0.0783 
     46 C46       -78.7386   28.1193  -75.8057 C.3       11 UNK        -0.0857 
     47 S47       -78.9232   29.8098  -76.4780 S.3       11 UNK        -0.2512 
     48 C48       -77.6095   30.7825  -75.6542 C.3       11 UNK         0.0225 
     49 N         -77.2392   26.3412  -74.9297 N.am      5 UNK        -0.4615 
     50 C         -76.1278   25.8818  -74.3396 C.2       4 UNK         0.5053 
     51 O         -75.0570   26.4876  -74.3534 O.2       4 UNK        -0.5105 
     52 CA        -76.2153   24.5241  -73.6204 C.3       4 UNK         0.0263 
     53 CB        -76.4261   24.7161  -72.1115 C.3       4 UNK        -0.1981 
     54 N         -77.2935   23.6910  -74.1572 N.am      4 UNK        -0.4224 
     55 C         -77.1544   22.8949  -75.2277 C.2       3 UNK         0.4895 
     56 O         -76.0806   22.7026  -75.7969 O.2       3 UNK        -0.5091 
     57 CA        -78.4130   22.1947  -75.7752 C.3       3 UNK         0.0250 
     58 CB        -78.4606   20.7324  -75.3033 C.3       3 UNK        -0.1996 
     59 N         -79.6786   22.8496  -75.4316 N.am      3 UNK        -0.4254 
     60 C         -80.0415   24.0856  -75.8010 C.2       2 UNK         0.5004 
     61 O         -79.3237   24.8313  -76.4679 O.2       2 UNK        -0.5226 
     62 CA        -81.4117   24.5993  -75.3124 C.3       2 UNK         0.0269 
     63 CB        -82.2982   23.5062  -74.6738 C.3       2 UNK        -0.1926 
     64 N         -81.3115   25.7398  -74.3902 N.am      2 UNK        -0.4687 
     65 C         -80.5316   25.8519  -73.3040 C.2       1 UNK         0.5165 
     66 O         -79.6818   25.0177  -72.9851 O.2       1 UNK        -0.5079 
     67 H67       -84.1927   26.5549  -70.3342 H         1 UNK         0.0900 
     68 H68       -85.0569   27.8177  -71.2133 H         1 UNK         0.0900 
     69 H69       -85.1265   26.1448  -71.7749 H         1 UNK         0.0900 
     70 H70       -81.9882   26.5689  -70.7448 H         1 UNK         0.2959 
     71 H71       -80.8725   27.9488  -73.0552 H         1 UNK         0.1079 
     72 H72       -79.3690   26.4518  -70.8584 H         1 UNK         0.0837 
     73 H73       -78.7048   27.6022  -71.9845 H         1 UNK         0.0837 
     74 H74       -80.8585   30.1411  -71.8533 H         1 UNK         0.0685 
     75 H75       -80.1564   31.0367  -70.5309 H         1 UNK         0.0685 
     76 H76       -79.7125   30.4310  -73.8837 H         1 UNK         0.1434 
     77 H77       -75.4572   30.9602  -74.0225 H         1 UNK         0.1329 
     78 H78       -77.4479   30.5209  -70.2518 H         1 UNK         0.1335 
     79 H79       -74.1610   31.0789  -72.0473 H         1 UNK         0.0680 
     80 H80       -75.0175   31.8088  -70.7110 H         1 UNK         0.0680 
     81 H81       -75.1844   27.4024  -71.3321 H         1 UNK         0.1032 
     82 H82       -74.6578   28.5614  -72.5046 H         1 UNK         0.1032 
     83 H83       -72.2639   28.3099  -71.3992 H         1 UNK         0.0461 
     84 H84       -72.2022   27.8687  -69.0881 H         1 UNK         0.3453 
     85 H85       -72.2608   26.2263  -68.4997 H         1 UNK         0.3453 
     86 H86       -73.5054   26.9160  -73.5285 H         1 UNK         0.2984 
     87 H87       -70.4204   26.0776  -75.1001 H         1 UNK         0.0554 
     88 H88       -71.4399   23.9401  -74.2881 H         1 UNK         0.0847 
     89 H89       -71.8623   24.2597  -75.9637 H         1 UNK         0.0847 
     90 H90       -73.0423   24.5428  -74.6876 H         1 UNK         0.0847 
     91 H91       -73.0096   26.5419  -76.1708 H         1 UNK         0.3141 
     92 H92       -73.7600   29.1522  -76.3914 H         1 UNK         0.0743 
     93 H93       -71.3077   30.2734  -77.8465 H         1 UNK         0.0784 
     94 H94       -72.9558   30.8807  -78.0037 H         1 UNK         0.0784 
     95 H95       -72.1179   30.9997  -76.4659 H         1 UNK         0.0784 
     96 H96       -74.1633   28.0345  -78.2361 H         1 UNK         0.3213 
     97 H97       -72.9041   27.4144  -81.0113 H         1 UNK         0.0855 
     98 H98       -72.0098   24.8589  -79.5765 H         1 UNK         0.0814 
     99 H99       -71.0821   25.7859  -80.7434 H         1 UNK         0.0814 
    100 H100      -72.5295   24.9400  -81.2599 H         1 UNK         0.0814 
    101 H101      -74.9899   26.8500  -80.5944 H         1 UNK         0.3105 
    102 H102      -76.8198   26.1958  -79.7507 H         1 UNK         0.0547 
    103 H103      -76.5367   23.7492  -80.1160 H         1 UNK         0.0837 
    104 H104      -76.5066   23.4705  -78.3818 H         1 UNK         0.0837 
    105 H105      -77.9745   24.0660  -79.1562 H         1 UNK         0.0837 
    106 H106      -77.5978   25.4718  -77.1869 H         1 UNK         0.3020 
    107 H107      -76.6518   28.2899  -75.2634 H         1 UNK         0.1245 
    108 H108      -79.1593   28.1320  -74.8015 H         1 UNK         0.0781 
    109 H109      -79.3879   27.4591  -76.3829 H         1 UNK         0.0781 
    110 H110      -77.7412   31.8299  -75.9283 H         1 UNK         0.0836 
    111 H111      -76.6454   30.4854  -76.0698 H         1 UNK         0.0836 
    112 H112      -78.0644   25.7563  -74.9351 H         1 UNK         0.3022 
    113 H113      -75.2618   24.0106  -73.7587 H         1 UNK         0.0747 
    114 H114      -76.5882   23.7634  -71.6073 H         1 UNK         0.0793 
    115 H115      -77.2776   25.3605  -71.8941 H         1 UNK         0.0793 
    116 H116      -75.5464   25.1687  -71.6572 H         1 UNK         0.0793 
    117 H117      -78.2128   23.8198  -73.7449 H         1 UNK         0.3047 
    118 H118      -78.3306   22.1990  -76.8642 H         1 UNK         0.0822 
    119 H119      -79.2884   20.1922  -75.7632 H         1 UNK         0.0807 
    120 H120      -78.5711   20.6613  -74.2204 H         1 UNK         0.0807 
    121 H121      -77.5441   20.2049  -75.5723 H         1 UNK         0.0807 
    122 H122      -80.3185   22.3200  -74.8575 H         1 UNK         0.2946 
    123 H123      -81.9248   24.9625  -76.2045 H         1 UNK         0.1144 
    124 H124      -83.2893   23.8976  -74.4433 H         1 UNK         0.0793 
    125 H125      -81.8762   23.1245  -73.7430 H         1 UNK         0.0793 
    126 H126      -82.4433   22.6631  -75.3509 H         1 UNK         0.0793 
    127 H127      -82.0037   26.4692  -74.5256 H         1 UNK         0.2896 
@<TRIPOS>BOND
     1    1    2 1    
     2    1   67 1    
     3    1   68 1    
     4    1   69 1    
     5    2    3 2    
     6    2    4 am   BACKBONE|DICT|INTERRES
     7    4    5 1    
     8    4   70 1    
     9    5    6 1    
    10    5   65 1    
    11    5   71 1    
    12    6    7 1    
    13    6   72 1    
    14    6   73 1    
    15    7    8 1    
    16    8    9 1    
    17    8   74 1    
    18    8   75 1    
    19    9   10 ar   
    20    9   14 ar   
    21   10   11 ar   
    22   10   76 1    
    23   11   12 ar   
    24   11   48 1    
    25   12   13 ar   
    26   12   77 1    
    27   13   14 ar   
    28   13   15 1    
    29   14   78 1    
    30   15   16 1    
    31   15   79 1    
    32   15   80 1    
    33   16   17 1    
    34   17   18 1    
    35   17   81 1    
    36   17   82 1    
    37   18   19 1    
    38   18   22 1    
    39   18   83 1    
    40   19   20 am   BACKBONE|DICT|INTERRES
    41   19   21 2    
    42   20   84 1    
    43   20   85 1    
    44   22   23 am   BACKBONE|DICT|INTERRES
    45   22   86 1    
    46   23   24 2    
    47   23   25 1    
    48   25   26 1    
    49   25   27 1    
    50   25   87 1    
    51   26   88 1    
    52   26   89 1    
    53   26   90 1    
    54   27   28 am   BACKBONE|DICT|INTERRES
    55   27   91 1    
    56   28   29 2    
    57   28   30 1    
    58   30   31 1    
    59   30   32 1    
    60   30   92 1    
    61   31   93 1    
    62   31   94 1    
    63   31   95 1    
    64   32   33 am   BACKBONE|DICT|INTERRES
    65   32   96 1    
    66   33   34 2    
    67   33   35 1    
    68   35   36 1    
    69   35   37 1    
    70   35   97 1    
    71   36   98 1    
    72   36   99 1    
    73   36  100 1    
    74   37   38 am   BACKBONE|DICT|INTERRES
    75   37  101 1    
    76   38   39 2    
    77   38   40 1    
    78   40   41 1    
    79   40   42 1    
    80   40  102 1    
    81   41  103 1    
    82   41  104 1    
    83   41  105 1    
    84   42   43 am   BACKBONE|DICT|INTERRES
    85   42  106 1    
    86   43   44 2    
    87   43   45 1    
    88   45   46 1    
    89   45   49 1    
    90   45  107 1    
    91   46   47 1    
    92   46  108 1    
    93   46  109 1    
    94   47   48 1    
    95   48  110 1    
    96   48  111 1    
    97   49   50 am   BACKBONE|DICT|INTERRES
    98   49  112 1    
    99   50   51 2    
   100   50   52 1    
   101   52   53 1    
   102   52   54 1    
   103   52  113 1    
   104   53  114 1    
   105   53  115 1    
   106   53  116 1    
   107   54   55 am   BACKBONE|DICT|INTERRES
   108   54  117 1    
   109   55   56 2    
   110   55   57 1    
   111   57   58 1    
   112   57   59 1    
   113   57  118 1    
   114   58  119 1    
   115   58  120 1    
   116   58  121 1    
   117   59   60 am   BACKBONE|DICT|INTERRES
   118   59  122 1    
   119   60   61 2    
   120   60   62 1    
   121   62   63 1    
   122   62   64 1    
   123   62  123 1    
   124   63  124 1    
   125   63  125 1    
   126   63  126 1    
   127   64   65 am   BACKBONE|DICT|INTERRES
   128   64  127 1    
   129   65   66 2    
@<TRIPOS>SUBSTRUCTURE
     1 UNK         1 GROUP             0       ****    0 ROOT    
