@<TRIPOS>MOLECULE
3R135
127   129    1
SMALL
USER_CHARGES


@<TRIPOS>ATOM
      1 CA        -82.1355   22.1263  -72.8292 C.3       0 UNK        -0.1998 
      2 C         -81.8585   23.6191  -72.9113 C.2       0 UNK         0.4909 
      3 O         -80.7873   24.0063  -73.3782 O.2       0 UNK        -0.5240 
      4 N         -82.8355   24.4418  -72.4975 N.am      1 UNK        -0.4739 
      5 CA        -82.8637   25.9124  -72.3418 C.3       1 UNK         0.0864 
      6 C6        -82.0996   26.4047  -71.0795 C.3       11 UNK        -0.0881 
      7 S7        -80.2830   26.4954  -71.2465 S.3       11 UNK        -0.2682 
      8 C8        -79.9469   28.2251  -70.7967 C.3       11 UNK         0.0289 
      9 C9        -78.6412   28.7116  -71.4072 C.ar      11 UNK        -0.0687 
     10 C10       -78.6655   29.6352  -72.4560 C.ar      11 UNK        -0.0823 
     11 C11       -77.4756   30.1026  -73.0213 C.ar      11 UNK        -0.0830 
     12 C12       -76.2541   29.6325  -72.5330 C.ar      11 UNK        -0.1021 
     13 C13       -76.2156   28.7008  -71.4916 C.ar      11 UNK        -0.0753 
     14 C14       -77.4120   28.2488  -70.9254 C.ar      11 UNK        -0.0933 
     15 C15       -74.8760   28.1774  -71.0016 C.3       11 UNK         0.0166 
     16 S16       -73.9826   29.4490  -70.0546 S.3       11 UNK        -0.2615 
     17 C17       -72.2469   28.9867  -70.3796 C.3       11 UNK        -0.0865 
     18 CA        -71.5919   29.8881  -71.4594 C.3       10 UNK         0.0862 
     19 C         -70.0661   29.6141  -71.5506 C.2       10 UNK         0.5551 
     20 N         -69.2626   30.3236  -70.7702 N.am      10 UNK        -0.7319 
     21 O         -69.6113   28.7394  -72.2859 O.2       10 UNK        -0.5018 
     22 N         -72.2549   29.7334  -72.7608 N.am      10 UNK        -0.4509 
     23 C         -72.1088   30.5446  -73.8124 C.2       10 UNK         0.4899 
     24 O         -71.4621   31.5932  -73.7873 O.2       10 UNK        -0.4839 
     25 CA        -72.7912   30.0815  -75.1151 C.3       9 UNK         0.0222 
     26 CB        -72.7746   31.1590  -76.2143 C.3       9 UNK        -0.1966 
     27 N         -72.1838   28.8533  -75.6368 N.am      9 UNK        -0.4218 
     28 C         -72.3903   27.6272  -75.1405 C.2       9 UNK         0.5020 
     29 O         -73.1150   27.4020  -74.1702 O.2       9 UNK        -0.5274 
     30 CA        -71.6356   26.4700  -75.8007 C.3       8 UNK         0.0270 
     31 CB        -70.6139   25.8573  -74.8228 C.3       8 UNK        -0.1976 
     32 N         -72.5951   25.4607  -76.2468 N.am      8 UNK        -0.4313 
     33 C         -72.3455   24.5313  -77.1791 C.2       8 UNK         0.5041 
     34 O         -71.2508   24.3909  -77.7274 O.2       8 UNK        -0.5577 
     35 CA        -73.5100   23.6172  -77.6000 C.3       7 UNK         0.0284 
     36 CB        -73.8419   22.5833  -76.5108 C.3       7 UNK        -0.1958 
     37 N         -74.7067   24.3801  -77.9581 N.am      7 UNK        -0.4454 
     38 C         -74.8247   25.1281  -79.0655 C.2       7 UNK         0.5089 
     39 O         -73.9742   25.1763  -79.9550 O.2       7 UNK        -0.5125 
     40 CA        -76.0962   25.9864  -79.2019 C.3       6 UNK         0.0408 
     41 CB        -77.2219   25.1990  -79.8900 C.3       6 UNK        -0.1791 
     42 N         -76.5700   26.5092  -77.9189 N.am      6 UNK        -0.4762 
     43 C         -75.8939   27.3857  -77.1605 C.2       6 UNK         0.5007 
     44 O         -74.8303   27.9054  -77.4980 O.2       6 UNK        -0.5032 
     45 CA        -76.5033   27.7109  -75.7832 C.3       5 UNK         0.0783 
     46 C46       -77.5501   28.8510  -75.8995 C.3       11 UNK        -0.0857 
     47 S47       -76.7639   30.4863  -75.7009 S.3       11 UNK        -0.2512 
     48 C48       -77.5191   31.1111  -74.1628 C.3       11 UNK         0.0225 
     49 N         -77.0506   26.5168  -75.1298 N.am      5 UNK        -0.4615 
     50 C         -76.3271   25.4555  -74.7432 C.2       4 UNK         0.5053 
     51 O         -75.1109   25.3638  -74.8861 O.2       4 UNK        -0.5105 
     52 CA        -77.0980   24.2594  -74.1626 C.3       4 UNK         0.0263 
     53 CB        -77.4277   24.5008  -72.6835 C.3       4 UNK        -0.1981 
     54 N         -78.3235   23.9741  -74.9121 N.am      4 UNK        -0.4224 
     55 C         -78.3403   23.6047  -76.2024 C.2       3 UNK         0.4895 
     56 O         -77.3249   23.3729  -76.8585 O.2       3 UNK        -0.5091 
     57 CA        -79.7106   23.5326  -76.8970 C.3       3 UNK         0.0250 
     58 CB        -80.3393   22.1443  -76.7013 C.3       3 UNK        -0.1996 
     59 N         -80.6466   24.5637  -76.4399 N.am      3 UNK        -0.4254 
     60 C         -80.4544   25.8887  -76.5431 C.2       2 UNK         0.5004 
     61 O         -79.4767   26.3977  -77.0907 O.2       2 UNK        -0.5226 
     62 CA        -81.5007   26.7879  -75.8731 C.3       2 UNK         0.0269 
     63 CB        -82.7020   27.0228  -76.8073 C.3       2 UNK        -0.1926 
     64 N         -81.9216   26.1861  -74.6085 N.am      2 UNK        -0.4687 
     65 C         -82.5804   26.7682  -73.6050 C.2       1 UNK         0.5165 
     66 O         -82.9835   27.9317  -73.6459 O.2       1 UNK        -0.5079 
     67 H67       -81.3045   21.6195  -72.3391 H         1 UNK         0.0900 
     68 H68       -83.0422   21.9099  -72.2646 H         1 UNK         0.0900 
     69 H69       -82.2482   21.7085  -73.8289 H         1 UNK         0.0900 
     70 H70       -83.6932   24.0016  -72.1935 H         1 UNK         0.2959 
     71 H71       -83.9175   26.1120  -72.1388 H         1 UNK         0.1079 
     72 H72       -82.4845   27.3829  -70.7877 H         1 UNK         0.0837 
     73 H73       -82.3246   25.7514  -70.2354 H         1 UNK         0.0837 
     74 H74       -80.7702   28.8594  -71.1289 H         1 UNK         0.0685 
     75 H75       -79.9050   28.3145  -69.7103 H         1 UNK         0.0685 
     76 H76       -79.6148   29.9911  -72.8328 H         1 UNK         0.1434 
     77 H77       -75.3302   29.9868  -72.9679 H         1 UNK         0.1329 
     78 H78       -77.3912   27.5288  -70.1189 H         1 UNK         0.1335 
     79 H79       -74.2889   27.8642  -71.8643 H         1 UNK         0.0680 
     80 H80       -75.0043   27.2901  -70.3798 H         1 UNK         0.0680 
     81 H81       -71.7084   29.0779  -69.4341 H         1 UNK         0.1032 
     82 H82       -72.1821   27.9329  -70.6584 H         1 UNK         0.1032 
     83 H83       -71.7233   30.9284  -71.1538 H         1 UNK         0.0461 
     84 H84       -68.2700   30.1504  -70.8025 H         1 UNK         0.3453 
     85 H85       -69.6264   31.0367  -70.1570 H         1 UNK         0.3453 
     86 H86       -72.7251   28.8488  -72.9267 H         1 UNK         0.2984 
     87 H87       -73.8370   29.8759  -74.8794 H         1 UNK         0.0554 
     88 H88       -73.2442   32.0791  -75.8640 H         1 UNK         0.0847 
     89 H89       -73.3290   30.8315  -77.0945 H         1 UNK         0.0847 
     90 H90       -71.7596   31.4075  -76.5266 H         1 UNK         0.0847 
     91 H91       -71.5495   28.9623  -76.4150 H         1 UNK         0.3141 
     92 H92       -71.1020   26.8533  -76.6731 H         1 UNK         0.0743 
     93 H93       -69.9282   26.6183  -74.4472 H         1 UNK         0.0784 
     94 H94       -71.1067   25.4084  -73.9594 H         1 UNK         0.0784 
     95 H95       -70.0110   25.0866  -75.3028 H         1 UNK         0.0784 
     96 H96       -73.5182   25.5102  -75.8106 H         1 UNK         0.3213 
     97 H97       -73.1912   23.0658  -78.4874 H         1 UNK         0.0855 
     98 H98       -74.1579   23.0520  -75.5797 H         1 UNK         0.0814 
     99 H99       -72.9706   21.9680  -76.2835 H         1 UNK         0.0814 
    100 H100      -74.6388   21.9124  -76.8323 H         1 UNK         0.0814 
    101 H101      -75.4844   24.3543  -77.3077 H         1 UNK         0.3105 
    102 H102      -75.8509   26.8426  -79.8337 H         1 UNK         0.0547 
    103 H103      -78.1188   25.8072  -80.0085 H         1 UNK         0.0837 
    104 H104      -76.9150   24.8749  -80.8852 H         1 UNK         0.0837 
    105 H105      -77.4943   24.3053  -79.3294 H         1 UNK         0.0837 
    106 H106      -77.4703   26.1796  -77.5845 H         1 UNK         0.3020 
    107 H107      -75.6818   28.0433  -75.1432 H         1 UNK         0.1245 
    108 H108      -78.3317   28.7342  -75.1492 H         1 UNK         0.0781 
    109 H109      -78.0801   28.8275  -76.8542 H         1 UNK         0.0781 
    110 H110      -78.5465   31.4085  -74.3781 H         1 UNK         0.0836 
    111 H111      -76.9972   32.0188  -73.8568 H         1 UNK         0.0836 
    112 H112      -78.0534   26.4801  -75.0275 H         1 UNK         0.3022 
    113 H113      -76.4560   23.3786  -74.2301 H         1 UNK         0.0747 
    114 H114      -77.9937   23.6725  -72.2567 H         1 UNK         0.0793 
    115 H115      -76.5164   24.6149  -72.0951 H         1 UNK         0.0793 
    116 H116      -78.0120   25.4103  -72.5523 H         1 UNK         0.0793 
    117 H117      -79.2058   24.0906  -74.4175 H         1 UNK         0.3047 
    118 H118      -79.5472   23.6888  -77.9651 H         1 UNK         0.0822 
    119 H119      -79.6762   21.3619  -77.0732 H         1 UNK         0.0807 
    120 H120      -81.2811   22.0529  -77.2425 H         1 UNK         0.0807 
    121 H121      -80.5320   21.9337  -75.6489 H         1 UNK         0.0807 
    122 H122      -81.4910   24.2350  -75.9963 H         1 UNK         0.2946 
    123 H123      -81.0241   27.7468  -75.6574 H         1 UNK         0.1144 
    124 H124      -83.4062   27.7372  -76.3812 H         1 UNK         0.0793 
    125 H125      -83.2441   26.0984  -77.0088 H         1 UNK         0.0793 
    126 H126      -82.3756   27.4276  -77.7664 H         1 UNK         0.0793 
    127 H127      -81.5183   25.2787  -74.3828 H         1 UNK         0.2896 
@<TRIPOS>BOND
     1    1    2 1    
     2    1   67 1    
     3    1   68 1    
     4    1   69 1    
     5    2    3 2    
     6    2    4 am   BACKBONE|DICT|INTERRES
     7    4    5 1    
     8    4   70 1    
     9    5    6 1    
    10    5   65 1    
    11    5   71 1    
    12    6    7 1    
    13    6   72 1    
    14    6   73 1    
    15    7    8 1    
    16    8    9 1    
    17    8   74 1    
    18    8   75 1    
    19    9   10 ar   
    20    9   14 ar   
    21   10   11 ar   
    22   10   76 1    
    23   11   12 ar   
    24   11   48 1    
    25   12   13 ar   
    26   12   77 1    
    27   13   14 ar   
    28   13   15 1    
    29   14   78 1    
    30   15   16 1    
    31   15   79 1    
    32   15   80 1    
    33   16   17 1    
    34   17   18 1    
    35   17   81 1    
    36   17   82 1    
    37   18   19 1    
    38   18   22 1    
    39   18   83 1    
    40   19   20 am   BACKBONE|DICT|INTERRES
    41   19   21 2    
    42   20   84 1    
    43   20   85 1    
    44   22   23 am   BACKBONE|DICT|INTERRES
    45   22   86 1    
    46   23   24 2    
    47   23   25 1    
    48   25   26 1    
    49   25   27 1    
    50   25   87 1    
    51   26   88 1    
    52   26   89 1    
    53   26   90 1    
    54   27   28 am   BACKBONE|DICT|INTERRES
    55   27   91 1    
    56   28   29 2    
    57   28   30 1    
    58   30   31 1    
    59   30   32 1    
    60   30   92 1    
    61   31   93 1    
    62   31   94 1    
    63   31   95 1    
    64   32   33 am   BACKBONE|DICT|INTERRES
    65   32   96 1    
    66   33   34 2    
    67   33   35 1    
    68   35   36 1    
    69   35   37 1    
    70   35   97 1    
    71   36   98 1    
    72   36   99 1    
    73   36  100 1    
    74   37   38 am   BACKBONE|DICT|INTERRES
    75   37  101 1    
    76   38   39 2    
    77   38   40 1    
    78   40   41 1    
    79   40   42 1    
    80   40  102 1    
    81   41  103 1    
    82   41  104 1    
    83   41  105 1    
    84   42   43 am   BACKBONE|DICT|INTERRES
    85   42  106 1    
    86   43   44 2    
    87   43   45 1    
    88   45   46 1    
    89   45   49 1    
    90   45  107 1    
    91   46   47 1    
    92   46  108 1    
    93   46  109 1    
    94   47   48 1    
    95   48  110 1    
    96   48  111 1    
    97   49   50 am   BACKBONE|DICT|INTERRES
    98   49  112 1    
    99   50   51 2    
   100   50   52 1    
   101   52   53 1    
   102   52   54 1    
   103   52  113 1    
   104   53  114 1    
   105   53  115 1    
   106   53  116 1    
   107   54   55 am   BACKBONE|DICT|INTERRES
   108   54  117 1    
   109   55   56 2    
   110   55   57 1    
   111   57   58 1    
   112   57   59 1    
   113   57  118 1    
   114   58  119 1    
   115   58  120 1    
   116   58  121 1    
   117   59   60 am   BACKBONE|DICT|INTERRES
   118   59  122 1    
   119   60   61 2    
   120   60   62 1    
   121   62   63 1    
   122   62   64 1    
   123   62  123 1    
   124   63  124 1    
   125   63  125 1    
   126   63  126 1    
   127   64   65 am   BACKBONE|DICT|INTERRES
   128   64  127 1    
   129   65   66 2    
@<TRIPOS>SUBSTRUCTURE
     1 UNK         1 GROUP             0       ****    0 ROOT    
