@<TRIPOS>MOLECULE
3R135
127   129    1
SMALL
USER_CHARGES


@<TRIPOS>ATOM
      1 CA        -81.4101   30.9280  -76.3508 C.3       0 UNK        -0.1998 
      2 C         -80.5855   29.7959  -75.7573 C.2       0 UNK         0.4909 
      3 O         -79.4418   29.5952  -76.1646 O.2       0 UNK        -0.5240 
      4 N         -81.1586   29.0600  -74.7956 N.am      1 UNK        -0.4739 
      5 CA        -80.5260   27.9278  -74.1033 C.3       1 UNK         0.0864 
      6 C6        -81.3433   27.4725  -72.8645 C.3       11 UNK        -0.0881 
      7 S7        -81.7692   28.8528  -71.7440 S.3       11 UNK        -0.2682 
      8 C8        -80.8363   28.4469  -70.2333 C.3       11 UNK         0.0289 
      9 C9        -79.3315   28.4088  -70.4616 C.ar      11 UNK        -0.0687 
     10 C10       -78.6125   27.2434  -70.1833 C.ar      11 UNK        -0.0823 
     11 C11       -77.2309   27.2012  -70.3807 C.ar      11 UNK        -0.0830 
     12 C12       -76.5671   28.3389  -70.8491 C.ar      11 UNK        -0.1021 
     13 C13       -77.2740   29.5075  -71.1561 C.ar      11 UNK        -0.0753 
     14 C14       -78.6562   29.5361  -70.9420 C.ar      11 UNK        -0.0933 
     15 C15       -76.5756   30.7497  -71.7111 C.3       11 UNK         0.0166 
     16 S16       -75.2630   30.3849  -72.9312 S.3       11 UNK        -0.2615 
     17 C17       -73.7824   30.2637  -71.8647 C.3       11 UNK        -0.0865 
     18 CA        -72.7380   31.3758  -72.1804 C.3       10 UNK         0.0862 
     19 C         -71.6577   31.5313  -71.0633 C.2       10 UNK         0.5551 
     20 N         -70.4314   31.9270  -71.3830 N.am      10 UNK        -0.7319 
     21 O         -71.9398   31.3273  -69.8849 O.2       10 UNK        -0.5018 
     22 N         -72.2006   31.2811  -73.5537 N.am      10 UNK        -0.4509 
     23 C         -71.4460   30.2833  -74.0333 C.2       10 UNK         0.4899 
     24 O         -71.0810   29.3100  -73.3692 O.2       10 UNK        -0.4839 
     25 CA        -70.9772   30.4268  -75.4920 C.3       9 UNK         0.0222 
     26 CB        -69.7038   31.2861  -75.5654 C.3       9 UNK        -0.1966 
     27 N         -70.7004   29.1135  -76.0780 N.am      9 UNK        -0.4218 
     28 C         -71.6439   28.2695  -76.5124 C.2       9 UNK         0.5020 
     29 O         -72.8333   28.5768  -76.6253 O.2       9 UNK        -0.5274 
     30 CA        -71.1666   26.8522  -76.8714 C.3       8 UNK         0.0270 
     31 CB        -70.6303   26.1164  -75.6291 C.3       8 UNK        -0.1976 
     32 N         -72.2800   26.0787  -77.4152 N.am      8 UNK        -0.4313 
     33 C         -72.2870   25.4167  -78.5791 C.2       8 UNK         0.5041 
     34 O         -71.3096   25.3418  -79.3260 O.2       8 UNK        -0.5577 
     35 CA        -73.5923   24.7031  -78.9921 C.3       7 UNK         0.0284 
     36 CB        -73.4527   23.1828  -78.8114 C.3       7 UNK        -0.1958 
     37 N         -74.7705   25.1651  -78.2533 N.am      7 UNK        -0.4454 
     38 C         -75.3293   26.3758  -78.3984 C.2       7 UNK         0.5089 
     39 O         -74.9998   27.1686  -79.2814 O.2       7 UNK        -0.5125 
     40 CA        -76.4264   26.7926  -77.3964 C.3       6 UNK         0.0408 
     41 CB        -77.7945   26.8206  -78.0961 C.3       6 UNK        -0.1791 
     42 N         -76.5283   25.9745  -76.1803 N.am      6 UNK        -0.4762 
     43 C         -75.5526   25.7395  -75.2892 C.2       6 UNK         0.5007 
     44 O         -74.4078   26.1769  -75.3920 O.2       6 UNK        -0.5032 
     45 CA        -75.8933   24.8075  -74.1100 C.3       5 UNK         0.0783 
     46 C46       -76.4368   25.6445  -72.9325 C.3       11 UNK        -0.0857 
     47 S47       -76.7621   24.6713  -71.4251 S.3       11 UNK        -0.2512 
     48 C48       -76.4568   25.9145  -70.1255 C.3       11 UNK         0.0225 
     49 N         -76.7798   23.6944  -74.4813 N.am      5 UNK        -0.4615 
     50 C         -76.5209   22.7801  -75.4260 C.2       4 UNK         0.5053 
     51 O         -75.5285   22.8241  -76.1540 O.2       4 UNK        -0.5105 
     52 CA        -77.5142   21.6193  -75.6176 C.3       4 UNK         0.0263 
     53 CB        -77.0863   20.3902  -74.7921 C.3       4 UNK        -0.1981 
     54 N         -78.9295   21.9489  -75.3995 N.am      4 UNK        -0.4224 
     55 C         -79.5731   22.2548  -74.2653 C.2       3 UNK         0.4895 
     56 O         -79.0213   22.3641  -73.1701 O.2       3 UNK        -0.5091 
     57 CA        -81.0875   22.5168  -74.4002 C.3       3 UNK         0.0250 
     58 CB        -81.7978   22.5731  -73.0347 C.3       3 UNK        -0.1996 
     59 N         -81.3532   23.7642  -75.1179 N.am      3 UNK        -0.4254 
     60 C         -81.1516   23.9814  -76.4248 C.2       2 UNK         0.5004 
     61 O         -80.8225   23.0961  -77.2163 O.2       2 UNK        -0.5226 
     62 CA        -81.3200   25.4232  -76.9414 C.3       2 UNK         0.0269 
     63 CB        -82.6135   25.5515  -77.7620 C.3       2 UNK        -0.1926 
     64 N         -81.3087   26.4667  -75.9073 N.am      2 UNK        -0.4687 
     65 C         -80.3030   26.7373  -75.0591 C.2       1 UNK         0.5165 
     66 O         -79.2529   26.0965  -75.0186 O.2       1 UNK        -0.5079 
     67 H67       -80.9001   31.8797  -76.2043 H         1 UNK         0.0900 
     68 H68       -82.3967   30.9981  -75.8929 H         1 UNK         0.0900 
     69 H69       -81.5429   30.7734  -77.4213 H         1 UNK         0.0900 
     70 H70       -82.0869   29.2980  -74.4755 H         1 UNK         0.2959 
     71 H71       -79.5416   28.2563  -73.7604 H         1 UNK         0.1079 
     72 H72       -80.7953   26.7074  -72.3106 H         1 UNK         0.0837 
     73 H73       -82.2819   27.0062  -73.1703 H         1 UNK         0.0837 
     74 H74       -81.0576   29.1964  -69.4724 H         1 UNK         0.0685 
     75 H75       -81.1985   27.4952  -69.8412 H         1 UNK         0.0685 
     76 H76       -79.1260   26.3615  -69.8247 H         1 UNK         0.1434 
     77 H77       -75.4992   28.2974  -71.0025 H         1 UNK         0.1329 
     78 H78       -79.2166   30.4348  -71.1617 H         1 UNK         0.1335 
     79 H79       -76.1761   31.3423  -70.8874 H         1 UNK         0.0680 
     80 H80       -77.3079   31.3857  -72.2109 H         1 UNK         0.0680 
     81 H81       -73.3416   29.2734  -71.9860 H         1 UNK         0.1032 
     82 H82       -74.0979   30.3154  -70.8216 H         1 UNK         0.1032 
     83 H83       -73.2725   32.3260  -72.1517 H         1 UNK         0.0461 
     84 H84       -70.1884   32.1087  -72.3431 H         1 UNK         0.3453 
     85 H85       -69.7422   32.0372  -70.6559 H         1 UNK         0.3453 
     86 H86       -72.4347   32.0505  -74.1646 H         1 UNK         0.2984 
     87 H87       -71.7635   30.9170  -76.0704 H         1 UNK         0.0554 
     88 H88       -69.3593   31.3981  -76.5937 H         1 UNK         0.0847 
     89 H89       -68.8885   30.8534  -74.9838 H         1 UNK         0.0847 
     90 H90       -69.8838   32.2893  -75.1770 H         1 UNK         0.0847 
     91 H91       -69.7549   28.7721  -75.9838 H         1 UNK         0.3141 
     92 H92       -70.3674   26.9471  -77.6094 H         1 UNK         0.0743 
     93 H93       -70.3204   25.1005  -75.8751 H         1 UNK         0.0784 
     94 H94       -69.7623   26.6226  -75.2057 H         1 UNK         0.0784 
     95 H95       -71.3865   26.0539  -74.8448 H         1 UNK         0.0784 
     96 H96       -73.1415   26.1497  -76.8766 H         1 UNK         0.3213 
     97 H97       -73.7541   24.9080  -80.0526 H         1 UNK         0.0855 
     98 H98       -73.2699   22.9170  -77.7693 H         1 UNK         0.0814 
     99 H99       -72.6187   22.7946  -79.3976 H         1 UNK         0.0814 
    100 H100      -74.3507   22.6582  -79.1383 H         1 UNK         0.0814 
    101 H101      -75.1013   24.5660  -77.5053 H         1 UNK         0.3105 
    102 H102      -76.1876   27.8086  -77.0760 H         1 UNK         0.0547 
    103 H103      -78.1245   25.8189  -78.3727 H         1 UNK         0.0837 
    104 H104      -78.5552   27.2685  -77.4580 H         1 UNK         0.0837 
    105 H105      -77.7587   27.4168  -79.0090 H         1 UNK         0.0837 
    106 H106      -77.4540   25.6281  -75.9494 H         1 UNK         0.3020 
    107 H107      -74.9507   24.3568  -73.7914 H         1 UNK         0.1245 
    108 H108      -75.7150   26.4256  -72.6871 H         1 UNK         0.0781 
    109 H109      -77.3594   26.1577  -73.2083 H         1 UNK         0.0781 
    110 H110      -76.7441   25.4988  -69.1587 H         1 UNK         0.0836 
    111 H111      -75.3855   26.1128  -70.0664 H         1 UNK         0.0836 
    112 H112      -77.5962   23.5518  -73.8949 H         1 UNK         0.3022 
    113 H113      -77.4485   21.3388  -76.6701 H         1 UNK         0.0747 
    114 H114      -77.7382   19.5376  -74.9819 H         1 UNK         0.0793 
    115 H115      -76.0709   20.0850  -75.0488 H         1 UNK         0.0793 
    116 H116      -77.1002   20.5925  -73.7207 H         1 UNK         0.0793 
    117 H117      -79.4879   22.0108  -76.2471 H         1 UNK         0.3047 
    118 H118      -81.5170   21.6886  -74.9682 H         1 UNK         0.0822 
    119 H119      -82.8752   22.6906  -73.1519 H         1 UNK         0.0807 
    120 H120      -81.4342   23.3994  -72.4220 H         1 UNK         0.0807 
    121 H121      -81.6330   21.6533  -72.4717 H         1 UNK         0.0807 
    122 H122      -81.6038   24.5601  -74.5515 H         1 UNK         0.2946 
    123 H123      -80.4761   25.6132  -77.6063 H         1 UNK         0.1144 
    124 H124      -82.6925   26.5335  -78.2288 H         1 UNK         0.0793 
    125 H125      -83.4996   25.3989  -77.1446 H         1 UNK         0.0793 
    126 H126      -82.6441   24.8123  -78.5641 H         1 UNK         0.0793 
    127 H127      -82.1226   27.0634  -75.8685 H         1 UNK         0.2896 
@<TRIPOS>BOND
     1    1    2 1    
     2    1   67 1    
     3    1   68 1    
     4    1   69 1    
     5    2    3 2    
     6    2    4 am   BACKBONE|DICT|INTERRES
     7    4    5 1    
     8    4   70 1    
     9    5    6 1    
    10    5   65 1    
    11    5   71 1    
    12    6    7 1    
    13    6   72 1    
    14    6   73 1    
    15    7    8 1    
    16    8    9 1    
    17    8   74 1    
    18    8   75 1    
    19    9   10 ar   
    20    9   14 ar   
    21   10   11 ar   
    22   10   76 1    
    23   11   12 ar   
    24   11   48 1    
    25   12   13 ar   
    26   12   77 1    
    27   13   14 ar   
    28   13   15 1    
    29   14   78 1    
    30   15   16 1    
    31   15   79 1    
    32   15   80 1    
    33   16   17 1    
    34   17   18 1    
    35   17   81 1    
    36   17   82 1    
    37   18   19 1    
    38   18   22 1    
    39   18   83 1    
    40   19   20 am   BACKBONE|DICT|INTERRES
    41   19   21 2    
    42   20   84 1    
    43   20   85 1    
    44   22   23 am   BACKBONE|DICT|INTERRES
    45   22   86 1    
    46   23   24 2    
    47   23   25 1    
    48   25   26 1    
    49   25   27 1    
    50   25   87 1    
    51   26   88 1    
    52   26   89 1    
    53   26   90 1    
    54   27   28 am   BACKBONE|DICT|INTERRES
    55   27   91 1    
    56   28   29 2    
    57   28   30 1    
    58   30   31 1    
    59   30   32 1    
    60   30   92 1    
    61   31   93 1    
    62   31   94 1    
    63   31   95 1    
    64   32   33 am   BACKBONE|DICT|INTERRES
    65   32   96 1    
    66   33   34 2    
    67   33   35 1    
    68   35   36 1    
    69   35   37 1    
    70   35   97 1    
    71   36   98 1    
    72   36   99 1    
    73   36  100 1    
    74   37   38 am   BACKBONE|DICT|INTERRES
    75   37  101 1    
    76   38   39 2    
    77   38   40 1    
    78   40   41 1    
    79   40   42 1    
    80   40  102 1    
    81   41  103 1    
    82   41  104 1    
    83   41  105 1    
    84   42   43 am   BACKBONE|DICT|INTERRES
    85   42  106 1    
    86   43   44 2    
    87   43   45 1    
    88   45   46 1    
    89   45   49 1    
    90   45  107 1    
    91   46   47 1    
    92   46  108 1    
    93   46  109 1    
    94   47   48 1    
    95   48  110 1    
    96   48  111 1    
    97   49   50 am   BACKBONE|DICT|INTERRES
    98   49  112 1    
    99   50   51 2    
   100   50   52 1    
   101   52   53 1    
   102   52   54 1    
   103   52  113 1    
   104   53  114 1    
   105   53  115 1    
   106   53  116 1    
   107   54   55 am   BACKBONE|DICT|INTERRES
   108   54  117 1    
   109   55   56 2    
   110   55   57 1    
   111   57   58 1    
   112   57   59 1    
   113   57  118 1    
   114   58  119 1    
   115   58  120 1    
   116   58  121 1    
   117   59   60 am   BACKBONE|DICT|INTERRES
   118   59  122 1    
   119   60   61 2    
   120   60   62 1    
   121   62   63 1    
   122   62   64 1    
   123   62  123 1    
   124   63  124 1    
   125   63  125 1    
   126   63  126 1    
   127   64   65 am   BACKBONE|DICT|INTERRES
   128   64  127 1    
   129   65   66 2    
@<TRIPOS>SUBSTRUCTURE
     1 UNK         1 GROUP             0       ****    0 ROOT    
