@<TRIPOS>MOLECULE
3R135
127   129    1
SMALL
USER_CHARGES


@<TRIPOS>ATOM
      1 CA        -81.7101   23.8413  -72.8571 C.3       0 UNK        -0.1998 
      2 C         -82.6482   25.0084  -73.1265 C.2       0 UNK         0.4909 
      3 O         -83.7360   25.0659  -72.5524 O.2       0 UNK        -0.5240 
      4 N         -82.2322   25.9361  -73.9928 N.am      1 UNK        -0.4739 
      5 CA        -82.9546   27.1644  -74.3386 C.3       1 UNK         0.0864 
      6 C6        -82.4650   28.3888  -73.5153 C.3       11 UNK        -0.0881 
      7 S7        -80.6484   28.6298  -73.4915 S.3       11 UNK        -0.2682 
      8 C8        -80.2706   28.0860  -71.7907 C.3       11 UNK         0.0289 
      9 C9        -78.8274   28.3214  -71.3488 C.ar      11 UNK        -0.0687 
     10 C10       -78.2281   27.4145  -70.4680 C.ar      11 UNK        -0.0823 
     11 C11       -76.9441   27.6490  -69.9666 C.ar      11 UNK        -0.0830 
     12 C12       -76.2459   28.7920  -70.3659 C.ar      11 UNK        -0.1021 
     13 C13       -76.8325   29.7110  -71.2388 C.ar      11 UNK        -0.0753 
     14 C14       -78.1203   29.4698  -71.7279 C.ar      11 UNK        -0.0933 
     15 C15       -76.1070   30.9989  -71.6008 C.3       11 UNK         0.0166 
     16 S16       -75.2292   30.8690  -73.1860 S.3       11 UNK        -0.2615 
     17 C17       -73.7030   29.9832  -72.7085 C.3       11 UNK        -0.0865 
     18 CA        -72.5701   30.1489  -73.7608 C.3       10 UNK         0.0862 
     19 C         -71.2354   29.4853  -73.3121 C.2       10 UNK         0.5551 
     20 N         -70.4492   28.9012  -74.2097 N.am      10 UNK        -0.7319 
     21 O         -70.8974   29.5061  -72.1314 O.2       10 UNK        -0.5018 
     22 N         -72.9924   29.7119  -75.1039 N.am      10 UNK        -0.4509 
     23 C         -73.0591   30.4969  -76.1850 C.2       10 UNK         0.4899 
     24 O         -72.8152   31.7053  -76.1730 O.2       10 UNK        -0.4839 
     25 CA        -73.4621   29.8099  -77.5083 C.3       9 UNK         0.0222 
     26 CB        -73.1648   30.6907  -78.7400 C.3       9 UNK        -0.1966 
     27 N         -72.8905   28.4701  -77.7156 N.am      9 UNK        -0.4218 
     28 C         -71.6068   28.0935  -77.6243 C.2       9 UNK         0.5020 
     29 O         -70.7110   28.8115  -77.1757 O.2       9 UNK        -0.5274 
     30 CA        -71.2735   26.6694  -78.1161 C.3       8 UNK         0.0270 
     31 CB        -69.7800   26.3252  -77.9600 C.3       8 UNK        -0.1976 
     32 N         -72.0606   25.6257  -77.4566 N.am      8 UNK        -0.4313 
     33 C         -73.3518   25.3417  -77.6567 C.2       8 UNK         0.5041 
     34 O         -74.0816   25.9932  -78.4055 O.2       8 UNK        -0.5577 
     35 CA        -73.9377   24.1534  -76.8750 C.3       7 UNK         0.0284 
     36 CB        -73.5128   22.8086  -77.4957 C.3       7 UNK        -0.1958 
     37 N         -73.6729   24.1964  -75.4293 N.am      7 UNK        -0.4454 
     38 C         -72.5038   24.1070  -74.7742 C.2       7 UNK         0.5089 
     39 O         -71.4241   23.9172  -75.3359 O.2       7 UNK        -0.5125 
     40 CA        -72.5157   24.3200  -73.2476 C.3       6 UNK         0.0408 
     41 CB        -71.6302   25.5202  -72.8702 C.3       6 UNK        -0.1791 
     42 N         -73.8572   24.5529  -72.7111 N.am      6 UNK        -0.4762 
     43 C         -74.7291   23.6039  -72.3430 C.2       6 UNK         0.5007 
     44 O         -74.4824   22.3978  -72.3663 O.2       6 UNK        -0.5032 
     45 CA        -76.1326   24.0957  -71.9161 C.3       5 UNK         0.0783 
     46 C46       -76.2415   24.2662  -70.3804 C.3       11 UNK        -0.0857 
     47 S47       -75.1469   25.5561  -69.6835 S.3       11 UNK        -0.2512 
     48 C48       -76.3330   26.7114  -68.9367 C.3       11 UNK         0.0225 
     49 N         -76.5710   25.2974  -72.6442 N.am      5 UNK        -0.4615 
     50 C         -76.7426   25.3477  -73.9719 C.2       4 UNK         0.5053 
     51 O         -76.5285   24.3898  -74.7173 O.2       4 UNK        -0.5105 
     52 CA        -77.1288   26.7080  -74.5750 C.3       4 UNK         0.0263 
     53 CB        -75.8844   27.5994  -74.6871 C.3       4 UNK        -0.1981 
     54 N         -77.7181   26.5676  -75.9078 N.am      4 UNK        -0.4224 
     55 C         -78.9087   26.0109  -76.1512 C.2       3 UNK         0.4895 
     56 O         -79.6842   25.6201  -75.2708 O.2       3 UNK        -0.5091 
     57 CA        -79.2953   25.8511  -77.6273 C.3       3 UNK         0.0250 
     58 CB        -78.6213   24.6158  -78.2486 C.3       3 UNK        -0.1996 
     59 N         -80.7400   25.6906  -77.6597 N.am      3 UNK        -0.4254 
     60 C         -81.5952   26.2624  -78.5107 C.2       2 UNK         0.5004 
     61 O         -81.2671   26.8254  -79.5555 O.2       2 UNK        -0.5226 
     62 CA        -83.0724   26.2356  -78.0772 C.3       2 UNK         0.0269 
     63 CB        -83.7756   24.9795  -78.6164 C.3       2 UNK        -0.1926 
     64 N         -83.2131   26.2878  -76.6142 N.am      2 UNK        -0.4687 
     65 C         -82.9339   27.3682  -75.8663 C.2       1 UNK         0.5165 
     66 O         -82.6535   28.4666  -76.3494 O.2       1 UNK        -0.5079 
     67 H67       -80.7714   23.9388  -73.4026 H         1 UNK         0.0900 
     68 H68       -82.1803   22.9047  -73.1549 H         1 UNK         0.0900 
     69 H69       -81.4779   23.7849  -71.7941 H         1 UNK         0.0900 
     70 H70       -81.3110   25.8460  -74.4208 H         1 UNK         0.2959 
     71 H71       -84.0137   27.0324  -74.1058 H         1 UNK         0.1079 
     72 H72       -82.9304   29.3083  -73.8751 H         1 UNK         0.0837 
     73 H73       -82.8203   28.2813  -72.4897 H         1 UNK         0.0837 
     74 H74       -80.5211   27.0269  -71.7110 H         1 UNK         0.0685 
     75 H75       -80.9223   28.6156  -71.0947 H         1 UNK         0.0685 
     76 H76       -78.7788   26.5431  -70.1402 H         1 UNK         0.1434 
     77 H77       -75.2580   28.9829  -69.9688 H         1 UNK         0.1329 
     78 H78       -78.5805   30.1962  -72.3833 H         1 UNK         0.1335 
     79 H79       -76.8305   31.8124  -71.6729 H         1 UNK         0.0680 
     80 H80       -75.4113   31.2874  -70.8114 H         1 UNK         0.0680 
     81 H81       -73.3729   30.3748  -71.7446 H         1 UNK         0.1032 
     82 H82       -73.9279   28.9305  -72.5400 H         1 UNK         0.1032 
     83 H83       -72.3327   31.2135  -73.7896 H         1 UNK         0.0461 
     84 H84       -69.5846   28.4856  -73.9033 H         1 UNK         0.3453 
     85 H85       -70.6652   28.9379  -75.2007 H         1 UNK         0.3453 
     86 H86       -73.1710   28.7258  -75.2130 H         1 UNK         0.2984 
     87 H87       -74.5430   29.6719  -77.4550 H         1 UNK         0.0554 
     88 H88       -73.5010   30.2138  -79.6606 H         1 UNK         0.0847 
     89 H89       -72.0978   30.8945  -78.8383 H         1 UNK         0.0847 
     90 H90       -73.6766   31.6516  -78.6721 H         1 UNK         0.0847 
     91 H91       -73.5350   27.7565  -78.0537 H         1 UNK         0.3141 
     92 H92       -71.5075   26.6446  -79.1824 H         1 UNK         0.0743 
     93 H93       -69.1527   27.0501  -78.4807 H         1 UNK         0.0784 
     94 H94       -69.4757   26.3210  -76.9123 H         1 UNK         0.0784 
     95 H95       -69.5527   25.3447  -78.3787 H         1 UNK         0.0784 
     96 H96       -71.5731   25.0458  -76.7754 H         1 UNK         0.3213 
     97 H97       -75.0222   24.2243  -76.9752 H         1 UNK         0.0855 
     98 H98       -72.4343   22.6551  -77.4516 H         1 UNK         0.0814 
     99 H99       -73.8030   22.7581  -78.5459 H         1 UNK         0.0814 
    100 H100      -73.9911   21.9714  -76.9875 H         1 UNK         0.0814 
    101 H101      -74.5093   24.3239  -74.8691 H         1 UNK         0.3105 
    102 H102      -72.0935   23.4243  -72.7876 H         1 UNK         0.0547 
    103 H103      -71.9838   26.4433  -73.3300 H         1 UNK         0.0837 
    104 H104      -71.6035   25.6717  -71.7909 H         1 UNK         0.0837 
    105 H105      -70.6006   25.3690  -73.1977 H         1 UNK         0.0837 
    106 H106      -74.1514   25.5149  -72.6254 H         1 UNK         0.3020 
    107 H107      -76.8231   23.2975  -72.1993 H         1 UNK         0.1245 
    108 H108      -76.0054   23.3235  -69.8829 H         1 UNK         0.0781 
    109 H109      -77.2771   24.4781  -70.1121 H         1 UNK         0.0781 
    110 H110      -77.1060   26.1592  -68.4000 H         1 UNK         0.0836 
    111 H111      -75.8117   27.3005  -68.1805 H         1 UNK         0.0836 
    112 H112      -76.7336   26.1247  -72.0859 H         1 UNK         0.3022 
    113 H113      -77.8594   27.1880  -73.9208 H         1 UNK         0.0747 
    114 H114      -75.4410   27.7559  -73.7056 H         1 UNK         0.0793 
    115 H115      -76.1351   28.5826  -75.0862 H         1 UNK         0.0793 
    116 H116      -75.1217   27.1571  -75.3296 H         1 UNK         0.0793 
    117 H117      -77.1345   26.8274  -76.6890 H         1 UNK         0.3047 
    118 H118      -79.0043   26.7531  -78.1705 H         1 UNK         0.0822 
    119 H119      -77.5351   24.7168  -78.2434 H         1 UNK         0.0807 
    120 H120      -78.9297   24.4768  -79.2849 H         1 UNK         0.0807 
    121 H121      -78.8670   23.7050  -77.7007 H         1 UNK         0.0807 
    122 H122      -81.1141   25.3003  -76.8046 H         1 UNK         0.2946 
    123 H123      -83.5580   27.1161  -78.5047 H         1 UNK         0.1144 
    124 H124      -83.3365   24.0648  -78.2161 H         1 UNK         0.0793 
    125 H125      -83.7002   24.9284  -79.7036 H         1 UNK         0.0793 
    126 H126      -84.8367   24.9809  -78.3665 H         1 UNK         0.0793 
    127 H127      -83.4520   25.4266  -76.1425 H         1 UNK         0.2896 
@<TRIPOS>BOND
     1    1    2 1    
     2    1   67 1    
     3    1   68 1    
     4    1   69 1    
     5    2    3 2    
     6    2    4 am   BACKBONE|DICT|INTERRES
     7    4    5 1    
     8    4   70 1    
     9    5    6 1    
    10    5   65 1    
    11    5   71 1    
    12    6    7 1    
    13    6   72 1    
    14    6   73 1    
    15    7    8 1    
    16    8    9 1    
    17    8   74 1    
    18    8   75 1    
    19    9   10 ar   
    20    9   14 ar   
    21   10   11 ar   
    22   10   76 1    
    23   11   12 ar   
    24   11   48 1    
    25   12   13 ar   
    26   12   77 1    
    27   13   14 ar   
    28   13   15 1    
    29   14   78 1    
    30   15   16 1    
    31   15   79 1    
    32   15   80 1    
    33   16   17 1    
    34   17   18 1    
    35   17   81 1    
    36   17   82 1    
    37   18   19 1    
    38   18   22 1    
    39   18   83 1    
    40   19   20 am   BACKBONE|DICT|INTERRES
    41   19   21 2    
    42   20   84 1    
    43   20   85 1    
    44   22   23 am   BACKBONE|DICT|INTERRES
    45   22   86 1    
    46   23   24 2    
    47   23   25 1    
    48   25   26 1    
    49   25   27 1    
    50   25   87 1    
    51   26   88 1    
    52   26   89 1    
    53   26   90 1    
    54   27   28 am   BACKBONE|DICT|INTERRES
    55   27   91 1    
    56   28   29 2    
    57   28   30 1    
    58   30   31 1    
    59   30   32 1    
    60   30   92 1    
    61   31   93 1    
    62   31   94 1    
    63   31   95 1    
    64   32   33 am   BACKBONE|DICT|INTERRES
    65   32   96 1    
    66   33   34 2    
    67   33   35 1    
    68   35   36 1    
    69   35   37 1    
    70   35   97 1    
    71   36   98 1    
    72   36   99 1    
    73   36  100 1    
    74   37   38 am   BACKBONE|DICT|INTERRES
    75   37  101 1    
    76   38   39 2    
    77   38   40 1    
    78   40   41 1    
    79   40   42 1    
    80   40  102 1    
    81   41  103 1    
    82   41  104 1    
    83   41  105 1    
    84   42   43 am   BACKBONE|DICT|INTERRES
    85   42  106 1    
    86   43   44 2    
    87   43   45 1    
    88   45   46 1    
    89   45   49 1    
    90   45  107 1    
    91   46   47 1    
    92   46  108 1    
    93   46  109 1    
    94   47   48 1    
    95   48  110 1    
    96   48  111 1    
    97   49   50 am   BACKBONE|DICT|INTERRES
    98   49  112 1    
    99   50   51 2    
   100   50   52 1    
   101   52   53 1    
   102   52   54 1    
   103   52  113 1    
   104   53  114 1    
   105   53  115 1    
   106   53  116 1    
   107   54   55 am   BACKBONE|DICT|INTERRES
   108   54  117 1    
   109   55   56 2    
   110   55   57 1    
   111   57   58 1    
   112   57   59 1    
   113   57  118 1    
   114   58  119 1    
   115   58  120 1    
   116   58  121 1    
   117   59   60 am   BACKBONE|DICT|INTERRES
   118   59  122 1    
   119   60   61 2    
   120   60   62 1    
   121   62   63 1    
   122   62   64 1    
   123   62  123 1    
   124   63  124 1    
   125   63  125 1    
   126   63  126 1    
   127   64   65 am   BACKBONE|DICT|INTERRES
   128   64  127 1    
   129   65   66 2    
@<TRIPOS>SUBSTRUCTURE
     1 UNK         1 GROUP             0       ****    0 ROOT    
