@<TRIPOS>MOLECULE
3R135
127   129    1
SMALL
USER_CHARGES


@<TRIPOS>ATOM
      1 CA        -81.4661   21.4380  -71.1363 C.3       0 UNK        -0.1998 
      2 C         -82.2089   22.7656  -71.1091 C.2       0 UNK         0.4909 
      3 O         -83.4383   22.7793  -71.0322 O.2       0 UNK        -0.5240 
      4 N         -81.4698   23.8800  -71.1638 N.am      1 UNK        -0.4739 
      5 CA        -82.0046   25.2416  -71.2609 C.3       1 UNK         0.0864 
      6 C6        -80.9947   26.2762  -70.6977 C.3       11 UNK        -0.0881 
      7 S7        -79.4178   26.3673  -71.6169 S.3       11 UNK        -0.2682 
      8 C8        -79.3237   28.1529  -71.9532 C.3       11 UNK         0.0289 
      9 C9        -78.0957   28.4980  -72.7805 C.ar      11 UNK        -0.0687 
     10 C10       -78.2331   28.8803  -74.1177 C.ar      11 UNK        -0.0823 
     11 C11       -77.1071   29.1830  -74.8881 C.ar      11 UNK        -0.0830 
     12 C12       -75.8373   29.1136  -74.3094 C.ar      11 UNK        -0.1021 
     13 C13       -75.6868   28.7277  -72.9742 C.ar      11 UNK        -0.0753 
     14 C14       -76.8196   28.4282  -72.2122 C.ar      11 UNK        -0.0933 
     15 C15       -74.2973   28.5850  -72.3732 C.3       11 UNK         0.0166 
     16 S16       -73.8759   29.9090  -71.1950 S.3       11 UNK        -0.2615 
     17 C17       -74.0874   31.4470  -72.1655 C.3       11 UNK        -0.0865 
     18 CA        -72.8790   31.8544  -73.0510 C.3       10 UNK         0.0862 
     19 C         -71.5787   32.1244  -72.2358 C.2       10 UNK         0.5551 
     20 N         -70.4655   31.4507  -72.5050 N.am      10 UNK        -0.7319 
     21 O         -71.5777   32.9783  -71.3524 O.2       10 UNK        -0.5018 
     22 N         -72.7144   30.9376  -74.1870 N.am      10 UNK        -0.4509 
     23 C         -72.1918   31.2707  -75.3725 C.2       10 UNK         0.4899 
     24 O         -71.8558   32.4181  -75.6701 O.2       10 UNK        -0.4839 
     25 CA        -72.0296   30.1322  -76.4029 C.3       9 UNK         0.0222 
     26 CB        -70.9428   30.4470  -77.4525 C.3       9 UNK        -0.1966 
     27 N         -71.7948   28.7975  -75.8291 N.am      9 UNK        -0.4218 
     28 C         -70.8151   28.4288  -74.9866 C.2       9 UNK         0.5020 
     29 O         -70.0458   29.2187  -74.4376 O.2       9 UNK        -0.5274 
     30 CA        -70.6598   26.9222  -74.7133 C.3       8 UNK         0.0270 
     31 CB        -71.2843   26.5288  -73.3648 C.3       8 UNK        -0.1976 
     32 N         -71.2320   26.0907  -75.7774 N.am      8 UNK        -0.4313 
     33 C         -70.6125   25.8112  -76.9354 C.2       8 UNK         0.5041 
     34 O         -69.4840   26.2239  -77.2088 O.2       8 UNK        -0.5577 
     35 CA        -71.3705   24.9585  -77.9792 C.3       7 UNK         0.0284 
     36 CB        -70.4380   23.9779  -78.7226 C.3       7 UNK        -0.1958 
     37 N         -72.5536   24.2641  -77.4526 N.am      7 UNK        -0.4454 
     38 C         -72.5971   23.3202  -76.4998 C.2       7 UNK         0.5089 
     39 O         -71.5967   22.8150  -75.9890 O.2       7 UNK        -0.5125 
     40 CA        -74.0008   22.8982  -76.0125 C.3       6 UNK         0.0408 
     41 CB        -73.9845   22.4427  -74.5383 C.3       6 UNK        -0.1791 
     42 N         -75.0551   23.9085  -76.2061 N.am      6 UNK        -0.4762 
     43 C         -75.0755   25.1726  -75.7482 C.2       6 UNK         0.5007 
     44 O         -74.1116   25.7191  -75.2089 O.2       6 UNK        -0.5032 
     45 CA        -76.3740   25.9782  -75.9553 C.3       5 UNK         0.0783 
     46 C46       -76.1918   27.0114  -77.0984 C.3       11 UNK        -0.0857 
     47 S47       -77.6628   28.0644  -77.3555 S.3       11 UNK        -0.2512 
     48 C48       -77.2607   29.5355  -76.3591 C.3       11 UNK         0.0225 
     49 N         -77.5599   25.1372  -76.1552 N.am      5 UNK        -0.4615 
     50 C         -78.1378   24.3740  -75.2199 C.2       4 UNK         0.5053 
     51 O         -77.6815   24.2249  -74.0861 O.2       4 UNK        -0.5105 
     52 CA        -79.4460   23.6684  -75.6314 C.3       4 UNK         0.0263 
     53 CB        -79.9615   22.7061  -74.5454 C.3       4 UNK        -0.1981 
     54 N         -80.5032   24.6282  -75.9784 N.am      4 UNK        -0.4224 
     55 C         -80.5704   25.2971  -77.1413 C.2       3 UNK         0.4895 
     56 O         -79.7382   25.1532  -78.0393 O.2       3 UNK        -0.5091 
     57 CA        -81.7394   26.2720  -77.3811 C.3       3 UNK         0.0250 
     58 CB        -82.5655   25.8334  -78.6032 C.3       3 UNK        -0.1996 
     59 N         -82.6424   26.4110  -76.2383 N.am      3 UNK        -0.4254 
     60 C         -82.5117   27.3066  -75.2514 C.2       2 UNK         0.5004 
     61 O         -81.5926   28.1220  -75.1800 O.2       2 UNK        -0.5226 
     62 CA        -83.5869   27.2921  -74.1444 C.3       2 UNK         0.0269 
     63 CB        -84.8921   26.5646  -74.5435 C.3       2 UNK        -0.1926 
     64 N         -83.0730   26.7539  -72.8780 N.am      2 UNK        -0.4687 
     65 C         -82.4722   25.5672  -72.6999 C.2       1 UNK         0.5165 
     66 O         -82.2832   24.7610  -73.6158 O.2       1 UNK        -0.5079 
     67 H67       -81.6946   20.8603  -70.2410 H         1 UNK         0.0900 
     68 H68       -80.3861   21.5764  -71.1850 H         1 UNK         0.0900 
     69 H69       -81.7718   20.8567  -72.0059 H         1 UNK         0.0900 
     70 H70       -80.4661   23.8120  -71.2549 H         1 UNK         0.2959 
     71 H71       -82.8989   25.2898  -70.6350 H         1 UNK         0.1079 
     72 H72       -81.4524   27.2654  -70.6470 H         1 UNK         0.0837 
     73 H73       -80.7585   26.0231  -69.6628 H         1 UNK         0.0837 
     74 H74       -80.2327   28.4685  -72.4688 H         1 UNK         0.0685 
     75 H75       -79.2915   28.6997  -71.0096 H         1 UNK         0.0685 
     76 H76       -79.2144   28.9201  -74.5702 H         1 UNK         0.1434 
     77 H77       -74.9662   29.3300  -74.9107 H         1 UNK         0.1329 
     78 H78       -76.7075   28.1219  -71.1810 H         1 UNK         0.1335 
     79 H79       -74.2318   27.6270  -71.8551 H         1 UNK         0.0680 
     80 H80       -73.5438   28.5486  -73.1578 H         1 UNK         0.0680 
     81 H81       -74.2971   32.2485  -71.4548 H         1 UNK         0.1032 
     82 H82       -74.9893   31.3767  -72.7740 H         1 UNK         0.1032 
     83 H83       -73.1423   32.8267  -73.4723 H         1 UNK         0.0461 
     84 H84       -70.4415   30.7430  -73.2321 H         1 UNK         0.3453 
     85 H85       -69.6336   31.6449  -71.9715 H         1 UNK         0.3453 
     86 H86       -72.9137   29.9682  -74.0024 H         1 UNK         0.2984 
     87 H87       -72.9840   30.0700  -76.9277 H         1 UNK         0.0554 
     88 H88       -70.8615   29.6506  -78.1924 H         1 UNK         0.0847 
     89 H89       -69.9633   30.5744  -76.9898 H         1 UNK         0.0847 
     90 H90       -71.1696   31.3660  -77.9944 H         1 UNK         0.0847 
     91 H91       -72.3823   28.0592  -76.1897 H         1 UNK         0.3141 
     92 H92       -69.5879   26.7220  -74.6499 H         1 UNK         0.0743 
     93 H93       -72.3718   26.5738  -73.3897 H         1 UNK         0.0784 
     94 H94       -71.0060   25.5115  -73.0888 H         1 UNK         0.0784 
     95 H95       -70.9435   27.1859  -72.5632 H         1 UNK         0.0784 
     96 H96       -72.1720   25.7358  -75.6210 H         1 UNK         0.3213 
     97 H97       -71.7476   25.6689  -78.7166 H         1 UNK         0.0855 
     98 H98       -69.6488   24.5128  -79.2523 H         1 UNK         0.0814 
     99 H99       -70.9839   23.3948  -79.4642 H         1 UNK         0.0814 
    100 H100      -69.9519   23.2818  -78.0386 H         1 UNK         0.0814 
    101 H101      -73.4430   24.5977  -77.7969 H         1 UNK         0.3105 
    102 H102      -74.2852   22.0394  -76.6220 H         1 UNK         0.0547 
    103 H103      -73.3170   21.5923  -74.3940 H         1 UNK         0.0837 
    104 H104      -73.6453   23.2397  -73.8754 H         1 UNK         0.0837 
    105 H105      -74.9758   22.1328  -74.2073 H         1 UNK         0.0837 
    106 H106      -75.8911   23.5800  -76.6699 H         1 UNK         0.3020 
    107 H107      -76.5326   26.5172  -75.0201 H         1 UNK         0.1245 
    108 H108      -75.9850   26.5000  -78.0403 H         1 UNK         0.0781 
    109 H109      -75.3288   27.6528  -76.9097 H         1 UNK         0.0781 
    110 H110      -78.0578   30.2713  -76.4749 H         1 UNK         0.0836 
    111 H111      -76.3542   30.0024  -76.7478 H         1 UNK         0.0836 
    112 H112      -78.0475   25.2428  -77.0403 H         1 UNK         0.3022 
    113 H113      -79.2227   23.0658  -76.5146 H         1 UNK         0.0747 
    114 H114      -80.8930   22.2256  -74.8448 H         1 UNK         0.0793 
    115 H115      -79.2356   21.9165  -74.3478 H         1 UNK         0.0793 
    116 H116      -80.1391   23.2244  -73.6037 H         1 UNK         0.0793 
    117 H117      -81.2018   24.8040  -75.2606 H         1 UNK         0.3047 
    118 H118      -81.2959   27.2447  -77.6063 H         1 UNK         0.0822 
    119 H119      -83.3628   26.5449  -78.8194 H         1 UNK         0.0807 
    120 H120      -83.0204   24.8535  -78.4529 H         1 UNK         0.0807 
    121 H121      -81.9428   25.7697  -79.4967 H         1 UNK         0.0807 
    122 H122      -83.4077   25.7540  -76.1844 H         1 UNK         0.2946 
    123 H123      -83.8389   28.3385  -73.9626 H         1 UNK         0.1144 
    124 H124      -84.7489   25.4914  -74.6744 H         1 UNK         0.0793 
    125 H125      -85.2987   26.9639  -75.4739 H         1 UNK         0.0793 
    126 H126      -85.6591   26.6985  -73.7805 H         1 UNK         0.0793 
    127 H127      -83.1655   27.3682  -72.0811 H         1 UNK         0.2896 
@<TRIPOS>BOND
     1    1    2 1    
     2    1   67 1    
     3    1   68 1    
     4    1   69 1    
     5    2    3 2    
     6    2    4 am   BACKBONE|DICT|INTERRES
     7    4    5 1    
     8    4   70 1    
     9    5    6 1    
    10    5   65 1    
    11    5   71 1    
    12    6    7 1    
    13    6   72 1    
    14    6   73 1    
    15    7    8 1    
    16    8    9 1    
    17    8   74 1    
    18    8   75 1    
    19    9   10 ar   
    20    9   14 ar   
    21   10   11 ar   
    22   10   76 1    
    23   11   12 ar   
    24   11   48 1    
    25   12   13 ar   
    26   12   77 1    
    27   13   14 ar   
    28   13   15 1    
    29   14   78 1    
    30   15   16 1    
    31   15   79 1    
    32   15   80 1    
    33   16   17 1    
    34   17   18 1    
    35   17   81 1    
    36   17   82 1    
    37   18   19 1    
    38   18   22 1    
    39   18   83 1    
    40   19   20 am   BACKBONE|DICT|INTERRES
    41   19   21 2    
    42   20   84 1    
    43   20   85 1    
    44   22   23 am   BACKBONE|DICT|INTERRES
    45   22   86 1    
    46   23   24 2    
    47   23   25 1    
    48   25   26 1    
    49   25   27 1    
    50   25   87 1    
    51   26   88 1    
    52   26   89 1    
    53   26   90 1    
    54   27   28 am   BACKBONE|DICT|INTERRES
    55   27   91 1    
    56   28   29 2    
    57   28   30 1    
    58   30   31 1    
    59   30   32 1    
    60   30   92 1    
    61   31   93 1    
    62   31   94 1    
    63   31   95 1    
    64   32   33 am   BACKBONE|DICT|INTERRES
    65   32   96 1    
    66   33   34 2    
    67   33   35 1    
    68   35   36 1    
    69   35   37 1    
    70   35   97 1    
    71   36   98 1    
    72   36   99 1    
    73   36  100 1    
    74   37   38 am   BACKBONE|DICT|INTERRES
    75   37  101 1    
    76   38   39 2    
    77   38   40 1    
    78   40   41 1    
    79   40   42 1    
    80   40  102 1    
    81   41  103 1    
    82   41  104 1    
    83   41  105 1    
    84   42   43 am   BACKBONE|DICT|INTERRES
    85   42  106 1    
    86   43   44 2    
    87   43   45 1    
    88   45   46 1    
    89   45   49 1    
    90   45  107 1    
    91   46   47 1    
    92   46  108 1    
    93   46  109 1    
    94   47   48 1    
    95   48  110 1    
    96   48  111 1    
    97   49   50 am   BACKBONE|DICT|INTERRES
    98   49  112 1    
    99   50   51 2    
   100   50   52 1    
   101   52   53 1    
   102   52   54 1    
   103   52  113 1    
   104   53  114 1    
   105   53  115 1    
   106   53  116 1    
   107   54   55 am   BACKBONE|DICT|INTERRES
   108   54  117 1    
   109   55   56 2    
   110   55   57 1    
   111   57   58 1    
   112   57   59 1    
   113   57  118 1    
   114   58  119 1    
   115   58  120 1    
   116   58  121 1    
   117   59   60 am   BACKBONE|DICT|INTERRES
   118   59  122 1    
   119   60   61 2    
   120   60   62 1    
   121   62   63 1    
   122   62   64 1    
   123   62  123 1    
   124   63  124 1    
   125   63  125 1    
   126   63  126 1    
   127   64   65 am   BACKBONE|DICT|INTERRES
   128   64  127 1    
   129   65   66 2    
@<TRIPOS>SUBSTRUCTURE
     1 UNK         1 GROUP             0       ****    0 ROOT    
