@<TRIPOS>MOLECULE
3R135
127   129    1
SMALL
USER_CHARGES


@<TRIPOS>ATOM
      1 CA        -76.8033   22.1854  -74.7558 C.3       0 UNK        -0.1998 
      2 C         -77.2954   22.7926  -73.4528 C.2       0 UNK         0.4909 
      3 O         -77.0860   22.2063  -72.3910 O.2       0 UNK        -0.5240 
      4 N         -77.9639   23.9487  -73.5318 N.am      1 UNK        -0.4739 
      5 CA        -78.5508   24.6613  -72.3901 C.3       1 UNK         0.0864 
      6 C6        -78.0046   26.1062  -72.2643 C.3       11 UNK        -0.0881 
      7 S7        -76.2687   26.1253  -71.6989 S.3       11 UNK        -0.2682 
      8 C8        -75.4140   26.9520  -73.0812 C.3       11 UNK         0.0289 
      9 C9        -75.9224   28.3598  -73.3756 C.ar      11 UNK        -0.0687 
     10 C10       -76.0671   28.7670  -74.7021 C.ar      11 UNK        -0.0823 
     11 C11       -76.5884   30.0243  -75.0167 C.ar      11 UNK        -0.0830 
     12 C12       -76.9145   30.9055  -73.9791 C.ar      11 UNK        -0.1021 
     13 C13       -76.7352   30.5320  -72.6424 C.ar      11 UNK        -0.0753 
     14 C14       -76.2468   29.2535  -72.3507 C.ar      11 UNK        -0.0933 
     15 C15       -77.1360   31.4860  -71.5208 C.3       11 UNK         0.0166 
     16 S16       -75.9353   31.5457  -70.1465 S.3       11 UNK        -0.2615 
     17 C17       -74.7163   32.7886  -70.7063 C.3       11 UNK        -0.0865 
     18 CA        -73.3752   32.2144  -71.2382 C.3       10 UNK         0.0862 
     19 C         -72.6173   31.3298  -70.2010 C.2       10 UNK         0.5551 
     20 N         -72.2406   30.0949  -70.5161 N.am      10 UNK        -0.7319 
     21 O         -72.3494   31.7844  -69.0913 O.2       10 UNK        -0.5018 
     22 N         -73.5420   31.6091  -72.5650 N.am      10 UNK        -0.4509 
     23 C         -72.5660   31.4950  -73.4719 C.2       10 UNK         0.4899 
     24 O         -71.4278   31.9485  -73.3356 O.2       10 UNK        -0.4839 
     25 CA        -72.9351   30.7540  -74.7629 C.3       9 UNK         0.0222 
     26 CB        -73.0138   31.7253  -75.9516 C.3       9 UNK        -0.1966 
     27 N         -72.0142   29.6621  -75.0775 N.am      9 UNK        -0.4218 
     28 C         -71.7540   28.6104  -74.2884 C.2       9 UNK         0.5020 
     29 O         -72.1993   28.4630  -73.1469 O.2       9 UNK        -0.5274 
     30 CA        -70.8197   27.5420  -74.8837 C.3       8 UNK         0.0270 
     31 CB        -69.4532   27.5700  -74.1788 C.3       8 UNK        -0.1976 
     32 N         -71.3704   26.1831  -74.8211 N.am      8 UNK        -0.4313 
     33 C         -72.5459   25.7886  -75.3304 C.2       8 UNK         0.5041 
     34 O         -73.3620   26.5466  -75.8633 O.2       8 UNK        -0.5577 
     35 CA        -72.8556   24.2848  -75.2398 C.3       7 UNK         0.0284 
     36 CB        -73.3144   23.8911  -73.8247 C.3       7 UNK        -0.1958 
     37 N         -73.9174   23.9634  -76.1918 N.am      7 UNK        -0.4454 
     38 C         -73.7467   23.3791  -77.3840 C.2       7 UNK         0.5089 
     39 O         -72.6924   22.8599  -77.7520 O.2       7 UNK        -0.5125 
     40 CA        -74.9563   23.3905  -78.3405 C.3       6 UNK         0.0408 
     41 CB        -75.6323   22.0108  -78.3926 C.3       6 UNK        -0.1791 
     42 N         -75.9482   24.4155  -77.9882 N.am      6 UNK        -0.4762 
     43 C         -75.8185   25.7204  -78.2744 C.2       6 UNK         0.5007 
     44 O         -74.8966   26.1707  -78.9565 O.2       6 UNK        -0.5032 
     45 CA        -76.9125   26.6636  -77.7265 C.3       5 UNK         0.0783 
     46 C46       -76.6989   28.1381  -78.1664 C.3       11 UNK        -0.0857 
     47 S47       -77.8759   29.3067  -77.3956 S.3       11 UNK        -0.2512 
     48 C48       -76.7768   30.4398  -76.4720 C.3       11 UNK         0.0225 
     49 N         -78.2377   26.1570  -78.0929 N.am      5 UNK        -0.4615 
     50 C         -78.9725   25.3319  -77.3409 C.2       4 UNK         0.5053 
     51 O         -78.6150   24.9037  -76.2390 O.2       4 UNK        -0.5105 
     52 CA        -80.2888   24.8409  -77.9586 C.3       4 UNK         0.0263 
     53 CB        -80.1502   23.3778  -78.4093 C.3       4 UNK        -0.1981 
     54 N         -81.3863   24.9462  -77.0024 N.am      4 UNK        -0.4224 
     55 C         -81.9654   26.0874  -76.6130 C.2       3 UNK         0.4895 
     56 O         -81.6891   27.1888  -77.0895 O.2       3 UNK        -0.5091 
     57 CA        -83.0280   25.9996  -75.5016 C.3       3 UNK         0.0250 
     58 CB        -84.4169   25.6645  -76.0803 C.3       3 UNK        -0.1996 
     59 N         -82.6683   25.1066  -74.3896 N.am      3 UNK        -0.4254 
     60 C         -82.5387   23.7728  -74.3771 C.2       2 UNK         0.5004 
     61 O         -82.7221   23.0529  -75.3607 O.2       2 UNK        -0.5226 
     62 CA        -82.0452   23.1580  -73.0557 C.3       2 UNK         0.0269 
     63 CB        -82.2756   21.6365  -72.9934 C.3       2 UNK        -0.1926 
     64 N         -80.6192   23.4273  -72.8591 N.am      2 UNK        -0.4687 
     65 C         -80.0887   24.6018  -72.4886 C.2       1 UNK         0.5165 
     66 O         -80.7732   25.5971  -72.2402 O.2       1 UNK        -0.5079 
     67 H67       -75.7167   22.1105  -74.7501 H         1 UNK         0.0900 
     68 H68       -77.1043   22.7820  -75.6147 H         1 UNK         0.0900 
     69 H69       -77.2131   21.1836  -74.8809 H         1 UNK         0.0900 
     70 H70       -78.1607   24.3536  -74.4453 H         1 UNK         0.2959 
     71 H71       -78.3143   24.1444  -71.4574 H         1 UNK         0.1079 
     72 H72       -78.1108   26.6395  -73.2107 H         1 UNK         0.0837 
     73 H73       -78.5714   26.6797  -71.5285 H         1 UNK         0.0837 
     74 H74       -74.3494   27.0000  -72.8546 H         1 UNK         0.0685 
     75 H75       -75.5171   26.3229  -73.9662 H         1 UNK         0.0685 
     76 H76       -75.7616   28.1025  -75.4935 H         1 UNK         0.1434 
     77 H77       -77.3149   31.8831  -74.2118 H         1 UNK         0.1329 
     78 H78       -76.1306   28.9469  -71.3205 H         1 UNK         0.1335 
     79 H79       -78.0930   31.1486  -71.1210 H         1 UNK         0.0680 
     80 H80       -77.3049   32.4943  -71.9018 H         1 UNK         0.0680 
     81 H81       -74.5136   33.4452  -69.8582 H         1 UNK         0.1032 
     82 H82       -75.1685   33.4349  -71.4599 H         1 UNK         0.1032 
     83 H83       -72.7252   33.0804  -71.3791 H         1 UNK         0.0461 
     84 H84       -72.4225   29.7081  -71.4350 H         1 UNK         0.3453 
     85 H85       -71.7479   29.5434  -69.8325 H         1 UNK         0.3453 
     86 H86       -74.4362   31.1700  -72.7390 H         1 UNK         0.2984 
     87 H87       -73.9154   30.3053  -74.6290 H         1 UNK         0.0554 
     88 H88       -73.3370   31.2187  -76.8610 H         1 UNK         0.0847 
     89 H89       -72.0505   32.1961  -76.1523 H         1 UNK         0.0847 
     90 H90       -73.7315   32.5230  -75.7546 H         1 UNK         0.0847 
     91 H91       -71.5712   29.7011  -75.9835 H         1 UNK         0.3141 
     92 H92       -70.6598   27.7682  -75.9400 H         1 UNK         0.0743 
     93 H93       -69.5395   27.3041  -73.1243 H         1 UNK         0.0784 
     94 H94       -68.7488   26.8804  -74.6444 H         1 UNK         0.0784 
     95 H95       -69.0096   28.5656  -74.2269 H         1 UNK         0.0784 
     96 H96       -70.7881   25.4916  -74.3714 H         1 UNK         0.3213 
     97 H97       -71.9456   23.7314  -75.4820 H         1 UNK         0.0855 
     98 H98       -74.2596   24.3594  -73.5536 H         1 UNK         0.0814 
     99 H99       -72.5794   24.1813  -73.0729 H         1 UNK         0.0814 
    100 H100      -73.4470   22.8123  -73.7428 H         1 UNK         0.0814 
    101 H101      -74.7884   24.4489  -76.0431 H         1 UNK         0.3105 
    102 H102      -74.5756   23.6069  -79.3411 H         1 UNK         0.0547 
    103 H103      -74.9297   21.2504  -78.7365 H         1 UNK         0.0837 
    104 H104      -75.9956   21.6917  -77.4173 H         1 UNK         0.0837 
    105 H105      -76.4745   22.0059  -79.0846 H         1 UNK         0.0837 
    106 H106      -76.7577   24.1190  -77.4597 H         1 UNK         0.3020 
    107 H107      -76.8186   26.6250  -76.6410 H         1 UNK         0.1245 
    108 H108      -76.7968   28.2286  -79.2498 H         1 UNK         0.0781 
    109 H109      -75.6811   28.4564  -77.9335 H         1 UNK         0.0781 
    110 H110      -77.2146   31.4378  -76.5213 H         1 UNK         0.0836 
    111 H111      -75.8055   30.5188  -76.9609 H         1 UNK         0.0836 
    112 H112      -78.5862   26.4423  -78.9968 H         1 UNK         0.3022 
    113 H113      -80.5318   25.4523  -78.8304 H         1 UNK         0.0747 
    114 H114      -81.0654   23.0205  -78.8817 H         1 UNK         0.0793 
    115 H115      -79.3450   23.2662  -79.1369 H         1 UNK         0.0793 
    116 H116      -79.9270   22.7166  -77.5705 H         1 UNK         0.0793 
    117 H117      -81.6900   24.0915  -76.5430 H         1 UNK         0.3047 
    118 H118      -83.0932   26.9957  -75.0605 H         1 UNK         0.0822 
    119 H119      -85.1811   25.6662  -75.3031 H         1 UNK         0.0807 
    120 H120      -84.4351   24.6889  -76.5669 H         1 UNK         0.0807 
    121 H121      -84.7130   26.4020  -76.8274 H         1 UNK         0.0807 
    122 H122      -82.3674   25.5844  -73.5456 H         1 UNK         0.2946 
    123 H123      -82.6121   23.6167  -72.2419 H         1 UNK         0.1144 
    124 H124      -81.9847   21.2310  -72.0241 H         1 UNK         0.0793 
    125 H125      -81.7098   21.1074  -73.7614 H         1 UNK         0.0793 
    126 H126      -83.3293   21.3958  -73.1409 H         1 UNK         0.0793 
    127 H127      -79.9839   22.6720  -73.0734 H         1 UNK         0.2896 
@<TRIPOS>BOND
     1    1    2 1    
     2    1   67 1    
     3    1   68 1    
     4    1   69 1    
     5    2    3 2    
     6    2    4 am   BACKBONE|DICT|INTERRES
     7    4    5 1    
     8    4   70 1    
     9    5    6 1    
    10    5   65 1    
    11    5   71 1    
    12    6    7 1    
    13    6   72 1    
    14    6   73 1    
    15    7    8 1    
    16    8    9 1    
    17    8   74 1    
    18    8   75 1    
    19    9   10 ar   
    20    9   14 ar   
    21   10   11 ar   
    22   10   76 1    
    23   11   12 ar   
    24   11   48 1    
    25   12   13 ar   
    26   12   77 1    
    27   13   14 ar   
    28   13   15 1    
    29   14   78 1    
    30   15   16 1    
    31   15   79 1    
    32   15   80 1    
    33   16   17 1    
    34   17   18 1    
    35   17   81 1    
    36   17   82 1    
    37   18   19 1    
    38   18   22 1    
    39   18   83 1    
    40   19   20 am   BACKBONE|DICT|INTERRES
    41   19   21 2    
    42   20   84 1    
    43   20   85 1    
    44   22   23 am   BACKBONE|DICT|INTERRES
    45   22   86 1    
    46   23   24 2    
    47   23   25 1    
    48   25   26 1    
    49   25   27 1    
    50   25   87 1    
    51   26   88 1    
    52   26   89 1    
    53   26   90 1    
    54   27   28 am   BACKBONE|DICT|INTERRES
    55   27   91 1    
    56   28   29 2    
    57   28   30 1    
    58   30   31 1    
    59   30   32 1    
    60   30   92 1    
    61   31   93 1    
    62   31   94 1    
    63   31   95 1    
    64   32   33 am   BACKBONE|DICT|INTERRES
    65   32   96 1    
    66   33   34 2    
    67   33   35 1    
    68   35   36 1    
    69   35   37 1    
    70   35   97 1    
    71   36   98 1    
    72   36   99 1    
    73   36  100 1    
    74   37   38 am   BACKBONE|DICT|INTERRES
    75   37  101 1    
    76   38   39 2    
    77   38   40 1    
    78   40   41 1    
    79   40   42 1    
    80   40  102 1    
    81   41  103 1    
    82   41  104 1    
    83   41  105 1    
    84   42   43 am   BACKBONE|DICT|INTERRES
    85   42  106 1    
    86   43   44 2    
    87   43   45 1    
    88   45   46 1    
    89   45   49 1    
    90   45  107 1    
    91   46   47 1    
    92   46  108 1    
    93   46  109 1    
    94   47   48 1    
    95   48  110 1    
    96   48  111 1    
    97   49   50 am   BACKBONE|DICT|INTERRES
    98   49  112 1    
    99   50   51 2    
   100   50   52 1    
   101   52   53 1    
   102   52   54 1    
   103   52  113 1    
   104   53  114 1    
   105   53  115 1    
   106   53  116 1    
   107   54   55 am   BACKBONE|DICT|INTERRES
   108   54  117 1    
   109   55   56 2    
   110   55   57 1    
   111   57   58 1    
   112   57   59 1    
   113   57  118 1    
   114   58  119 1    
   115   58  120 1    
   116   58  121 1    
   117   59   60 am   BACKBONE|DICT|INTERRES
   118   59  122 1    
   119   60   61 2    
   120   60   62 1    
   121   62   63 1    
   122   62   64 1    
   123   62  123 1    
   124   63  124 1    
   125   63  125 1    
   126   63  126 1    
   127   64   65 am   BACKBONE|DICT|INTERRES
   128   64  127 1    
   129   65   66 2    
@<TRIPOS>SUBSTRUCTURE
     1 UNK         1 GROUP             0       ****    0 ROOT    
