@<TRIPOS>MOLECULE
3R135
127   129    1
SMALL
USER_CHARGES


@<TRIPOS>ATOM
      1 CA        -83.5841   27.9379  -71.3793 C.3       0 UNK        -0.1998 
      2 C         -83.3994   26.4734  -70.9882 C.2       0 UNK         0.4909 
      3 O         -84.2964   25.9016  -70.3716 O.2       0 UNK        -0.5240 
      4 N         -82.2685   25.8216  -71.2982 N.am      1 UNK        -0.4739 
      5 CA        -81.1282   26.3162  -72.0801 C.3       1 UNK         0.0864 
      6 C6        -79.9392   25.3228  -72.0335 C.3       11 UNK        -0.0881 
      7 S7        -78.9991   25.4498  -70.4753 S.3       11 UNK        -0.2682 
      8 C8        -77.3024   25.7670  -71.0744 C.3       11 UNK         0.0289 
      9 C9        -76.9976   27.2449  -71.3083 C.ar      11 UNK        -0.0687 
     10 C10       -77.7750   28.0147  -72.1799 C.ar      11 UNK        -0.0823 
     11 C11       -77.4449   29.3439  -72.4494 C.ar      11 UNK        -0.0830 
     12 C12       -76.3510   29.9246  -71.8069 C.ar      11 UNK        -0.1021 
     13 C13       -75.5447   29.1641  -70.9582 C.ar      11 UNK        -0.0753 
     14 C14       -75.8785   27.8294  -70.7040 C.ar      11 UNK        -0.0933 
     15 C15       -74.2903   29.7729  -70.3515 C.3       11 UNK         0.0166 
     16 S16       -72.8809   29.6719  -71.5048 S.3       11 UNK        -0.2615 
     17 C17       -73.1145   31.1457  -72.5640 C.3       11 UNK        -0.0865 
     18 CA        -73.7041   30.8413  -73.9756 C.3       10 UNK         0.0862 
     19 C         -74.0269   32.1350  -74.7829 C.2       10 UNK         0.5551 
     20 N         -73.9131   32.1339  -76.1057 N.am      10 UNK        -0.7319 
     21 O         -74.4130   33.1498  -74.2077 O.2       10 UNK        -0.5018 
     22 N         -72.9588   29.8223  -74.7307 N.am      10 UNK        -0.4509 
     23 C         -71.6784   29.8763  -75.1191 C.2       10 UNK         0.4899 
     24 O         -70.9212   30.8203  -74.8874 O.2       10 UNK        -0.4839 
     25 CA        -71.1779   28.6543  -75.9138 C.3       9 UNK         0.0222 
     26 CB        -69.6464   28.6271  -76.1047 C.3       9 UNK        -0.1966 
     27 N         -71.6764   27.3967  -75.3452 N.am      9 UNK        -0.4218 
     28 C         -71.4056   26.8775  -74.1369 C.2       9 UNK         0.5020 
     29 O         -70.5685   27.3334  -73.3570 O.2       9 UNK        -0.5274 
     30 CA        -72.2202   25.6417  -73.7102 C.3       8 UNK         0.0270 
     31 CB        -73.3299   26.0544  -72.7272 C.3       8 UNK        -0.1976 
     32 N         -72.8262   24.9226  -74.8339 N.am      8 UNK        -0.4313 
     33 C         -72.1532   24.1918  -75.7332 C.2       8 UNK         0.5041 
     34 O         -70.9394   23.9897  -75.6844 O.2       8 UNK        -0.5577 
     35 CA        -72.9704   23.6126  -76.9002 C.3       7 UNK         0.0284 
     36 CB        -73.6948   22.3255  -76.4736 C.3       7 UNK        -0.1958 
     37 N         -73.9362   24.5756  -77.4398 N.am      7 UNK        -0.4454 
     38 C         -73.6048   25.6798  -78.1257 C.2       7 UNK         0.5089 
     39 O         -72.4478   25.9971  -78.3988 O.2       7 UNK        -0.5125 
     40 CA        -74.7569   26.6027  -78.5570 C.3       6 UNK         0.0408 
     41 CB        -75.3583   26.1340  -79.8909 C.3       6 UNK        -0.1791 
     42 N         -75.8107   26.6916  -77.5448 N.am      6 UNK        -0.4762 
     43 C         -75.6725   27.3231  -76.3684 C.2       6 UNK         0.5007 
     44 O         -74.6472   27.9163  -76.0299 O.2       6 UNK        -0.5032 
     45 CA        -76.8490   27.2101  -75.3764 C.3       5 UNK         0.0783 
     46 C46       -77.9305   28.2930  -75.6273 C.3       11 UNK        -0.0857 
     47 S47       -77.4420   29.9799  -75.1276 S.3       11 UNK        -0.2512 
     48 C48       -78.2247   30.1330  -73.4876 C.3       11 UNK         0.0225 
     49 N         -77.4392   25.8643  -75.3782 N.am      5 UNK        -0.4615 
     50 C         -76.7731   24.7409  -75.0664 C.2       4 UNK         0.5053 
     51 O         -75.6195   24.7427  -74.6429 O.2       4 UNK        -0.5105 
     52 CA        -77.4589   23.3810  -75.3037 C.3       4 UNK         0.0263 
     53 CB        -77.8217   22.7041  -73.9734 C.3       4 UNK        -0.1981 
     54 N         -78.6400   23.4392  -76.1665 N.am      4 UNK        -0.4224 
     55 C         -78.6273   23.7805  -77.4633 C.2       3 UNK         0.4895 
     56 O         -77.5983   24.0359  -78.0904 O.2       3 UNK        -0.5091 
     57 CA        -79.9947   23.9186  -78.1603 C.3       3 UNK         0.0250 
     58 CB        -80.3535   22.6175  -78.8951 C.3       3 UNK        -0.1996 
     59 N         -81.1033   24.2977  -77.2692 N.am      3 UNK        -0.4254 
     60 C         -81.1414   25.4002  -76.5043 C.2       2 UNK         0.5004 
     61 O         -80.2039   26.1952  -76.4377 O.2       2 UNK        -0.5226 
     62 CA        -82.4060   25.6499  -75.6549 C.3       2 UNK         0.0269 
     63 CB        -83.5572   24.6605  -75.9300 C.3       2 UNK        -0.1926 
     64 N         -82.0814   25.6131  -74.2263 N.am      2 UNK        -0.4687 
     65 C         -81.5188   26.6175  -73.5394 C.2       1 UNK         0.5165 
     66 O         -81.3200   27.7435  -73.9936 O.2       1 UNK        -0.5079 
     67 H67       -83.8926   28.0198  -72.4211 H         1 UNK         0.0900 
     68 H68       -82.6740   28.5182  -71.2351 H         1 UNK         0.0900 
     69 H69       -84.3599   28.3968  -70.7667 H         1 UNK         0.0900 
     70 H70       -82.1811   24.8662  -70.9826 H         1 UNK         0.2959 
     71 H71       -80.7992   27.2598  -71.6401 H         1 UNK         0.1079 
     72 H72       -80.2937   24.2958  -72.1360 H         1 UNK         0.0837 
     73 H73       -79.2566   25.4749  -72.8712 H         1 UNK         0.0837 
     74 H74       -76.6139   25.3587  -70.3331 H         1 UNK         0.0685 
     75 H75       -77.1130   25.2074  -71.9911 H         1 UNK         0.0685 
     76 H76       -78.6131   27.5767  -72.6951 H         1 UNK         0.1434 
     77 H77       -76.0926   30.9537  -72.0143 H         1 UNK         0.1329 
     78 H78       -75.2464   27.2380  -70.0558 H         1 UNK         0.1335 
     79 H79       -74.4692   30.8078  -70.0568 H         1 UNK         0.0680 
     80 H80       -74.0269   29.2407  -69.4362 H         1 UNK         0.0680 
     81 H81       -73.7480   31.8575  -72.0329 H         1 UNK         0.1032 
     82 H82       -72.1480   31.6415  -72.6639 H         1 UNK         0.1032 
     83 H83       -74.6774   30.3807  -73.8252 H         1 UNK         0.0461 
     84 H84       -74.1336   32.9699  -76.6230 H         1 UNK         0.3453 
     85 H85       -73.6196   31.3002  -76.5884 H         1 UNK         0.3453 
     86 H86       -73.5160   29.0304  -75.0425 H         1 UNK         0.2984 
     87 H87       -71.6286   28.7312  -76.9045 H         1 UNK         0.0554 
     88 H88       -69.3328   27.7471  -76.6662 H         1 UNK         0.0847 
     89 H89       -69.1163   28.6252  -75.1520 H         1 UNK         0.0847 
     90 H90       -69.3087   29.5032  -76.6594 H         1 UNK         0.0847 
     91 H91       -72.4007   26.9414  -75.8844 H         1 UNK         0.3141 
     92 H92       -71.5406   24.9588  -73.1963 H         1 UNK         0.0743 
     93 H93       -72.9109   26.5467  -71.8487 H         1 UNK         0.0784 
     94 H94       -74.0344   26.7518  -73.1834 H         1 UNK         0.0784 
     95 H95       -73.8950   25.1909  -72.3759 H         1 UNK         0.0784 
     96 H96       -73.8432   24.9635  -74.8992 H         1 UNK         0.3213 
     97 H97       -72.2723   23.3575  -77.7008 H         1 UNK         0.0855 
     98 H98       -74.3600   22.4939  -75.6268 H         1 UNK         0.0814 
     99 H99       -72.9767   21.5626  -76.1701 H         1 UNK         0.0814 
    100 H100      -74.2841   21.9080  -77.2903 H         1 UNK         0.0814 
    101 H101      -74.9145   24.4019  -77.2595 H         1 UNK         0.3105 
    102 H102      -74.3448   27.6033  -78.7059 H         1 UNK         0.0547 
    103 H103      -76.1393   26.8122  -80.2347 H         1 UNK         0.0837 
    104 H104      -74.5955   26.0985  -80.6699 H         1 UNK         0.0837 
    105 H105      -75.7906   25.1358  -79.8141 H         1 UNK         0.0837 
    106 H106      -76.6636   26.1775  -77.7271 H         1 UNK         0.3020 
    107 H107      -76.4192   27.3642  -74.3856 H         1 UNK         0.1245 
    108 H108      -78.8421   28.0391  -75.0864 H         1 UNK         0.0781 
    109 H109      -78.2218   28.3126  -76.6792 H         1 UNK         0.0781 
    110 H110      -78.2527   31.1868  -73.2066 H         1 UNK         0.0836 
    111 H111      -79.2639   29.8022  -73.5319 H         1 UNK         0.0836 
    112 H112      -78.3870   25.7990  -75.7387 H         1 UNK         0.3022 
    113 H113      -76.7263   22.7476  -75.8069 H         1 UNK         0.0747 
    114 H114      -78.1541   21.6779  -74.1310 H         1 UNK         0.0793 
    115 H115      -78.6146   23.2338  -73.4500 H         1 UNK         0.0793 
    116 H116      -76.9600   22.6625  -73.3052 H         1 UNK         0.0793 
    117 H117      -79.5322   23.2467  -75.7357 H         1 UNK         0.3047 
    118 H118      -79.8922   24.7126  -78.9030 H         1 UNK         0.0822 
    119 H119      -79.5577   22.3245  -79.5817 H         1 UNK         0.0807 
    120 H120      -81.2616   22.7325  -79.4874 H         1 UNK         0.0807 
    121 H121      -80.5061   21.7898  -78.2012 H         1 UNK         0.0807 
    122 H122      -81.9084   23.6880  -77.2675 H         1 UNK         0.2946 
    123 H123      -82.7582   26.6517  -75.9127 H         1 UNK         0.1144 
    124 H124      -83.8522   24.6762  -76.9804 H         1 UNK         0.0793 
    125 H125      -84.4430   24.9270  -75.3528 H         1 UNK         0.0793 
    126 H126      -83.2941   23.6348  -75.6681 H         1 UNK         0.0793 
    127 H127      -82.2278   24.7329  -73.7534 H         1 UNK         0.2896 
@<TRIPOS>BOND
     1    1    2 1    
     2    1   67 1    
     3    1   68 1    
     4    1   69 1    
     5    2    3 2    
     6    2    4 am   BACKBONE|DICT|INTERRES
     7    4    5 1    
     8    4   70 1    
     9    5    6 1    
    10    5   65 1    
    11    5   71 1    
    12    6    7 1    
    13    6   72 1    
    14    6   73 1    
    15    7    8 1    
    16    8    9 1    
    17    8   74 1    
    18    8   75 1    
    19    9   10 ar   
    20    9   14 ar   
    21   10   11 ar   
    22   10   76 1    
    23   11   12 ar   
    24   11   48 1    
    25   12   13 ar   
    26   12   77 1    
    27   13   14 ar   
    28   13   15 1    
    29   14   78 1    
    30   15   16 1    
    31   15   79 1    
    32   15   80 1    
    33   16   17 1    
    34   17   18 1    
    35   17   81 1    
    36   17   82 1    
    37   18   19 1    
    38   18   22 1    
    39   18   83 1    
    40   19   20 am   BACKBONE|DICT|INTERRES
    41   19   21 2    
    42   20   84 1    
    43   20   85 1    
    44   22   23 am   BACKBONE|DICT|INTERRES
    45   22   86 1    
    46   23   24 2    
    47   23   25 1    
    48   25   26 1    
    49   25   27 1    
    50   25   87 1    
    51   26   88 1    
    52   26   89 1    
    53   26   90 1    
    54   27   28 am   BACKBONE|DICT|INTERRES
    55   27   91 1    
    56   28   29 2    
    57   28   30 1    
    58   30   31 1    
    59   30   32 1    
    60   30   92 1    
    61   31   93 1    
    62   31   94 1    
    63   31   95 1    
    64   32   33 am   BACKBONE|DICT|INTERRES
    65   32   96 1    
    66   33   34 2    
    67   33   35 1    
    68   35   36 1    
    69   35   37 1    
    70   35   97 1    
    71   36   98 1    
    72   36   99 1    
    73   36  100 1    
    74   37   38 am   BACKBONE|DICT|INTERRES
    75   37  101 1    
    76   38   39 2    
    77   38   40 1    
    78   40   41 1    
    79   40   42 1    
    80   40  102 1    
    81   41  103 1    
    82   41  104 1    
    83   41  105 1    
    84   42   43 am   BACKBONE|DICT|INTERRES
    85   42  106 1    
    86   43   44 2    
    87   43   45 1    
    88   45   46 1    
    89   45   49 1    
    90   45  107 1    
    91   46   47 1    
    92   46  108 1    
    93   46  109 1    
    94   47   48 1    
    95   48  110 1    
    96   48  111 1    
    97   49   50 am   BACKBONE|DICT|INTERRES
    98   49  112 1    
    99   50   51 2    
   100   50   52 1    
   101   52   53 1    
   102   52   54 1    
   103   52  113 1    
   104   53  114 1    
   105   53  115 1    
   106   53  116 1    
   107   54   55 am   BACKBONE|DICT|INTERRES
   108   54  117 1    
   109   55   56 2    
   110   55   57 1    
   111   57   58 1    
   112   57   59 1    
   113   57  118 1    
   114   58  119 1    
   115   58  120 1    
   116   58  121 1    
   117   59   60 am   BACKBONE|DICT|INTERRES
   118   59  122 1    
   119   60   61 2    
   120   60   62 1    
   121   62   63 1    
   122   62   64 1    
   123   62  123 1    
   124   63  124 1    
   125   63  125 1    
   126   63  126 1    
   127   64   65 am   BACKBONE|DICT|INTERRES
   128   64  127 1    
   129   65   66 2    
@<TRIPOS>SUBSTRUCTURE
     1 UNK         1 GROUP             0       ****    0 ROOT    
