@<TRIPOS>MOLECULE
3R135
127   129    1
SMALL
USER_CHARGES


@<TRIPOS>ATOM
      1 CA        -79.8810   23.8864  -72.2494 C.3       0 UNK        -0.1998 
      2 C         -80.2855   25.0539  -73.1357 C.2       0 UNK         0.4909 
      3 O         -79.5531   25.3985  -74.0674 O.2       0 UNK        -0.5240 
      4 N         -81.4576   25.6389  -72.8485 N.am      1 UNK        -0.4739 
      5 CA        -82.0985   26.7509  -73.5637 C.3       1 UNK         0.0864 
      6 C6        -81.3525   28.1027  -73.3873 C.3       11 UNK        -0.0881 
      7 S7        -81.4694   28.6781  -71.6624 S.3       11 UNK        -0.2682 
      8 C8        -80.2932   30.0691  -71.6609 C.3       11 UNK         0.0289 
      9 C9        -78.8372   29.6238  -71.7351 C.ar      11 UNK        -0.0687 
     10 C10       -78.3390   28.6669  -70.8448 C.ar      11 UNK        -0.0823 
     11 C11       -76.9959   28.2818  -70.8852 C.ar      11 UNK        -0.0830 
     12 C12       -76.1415   28.8810  -71.8171 C.ar      11 UNK        -0.1021 
     13 C13       -76.6243   29.8423  -72.7096 C.ar      11 UNK        -0.0753 
     14 C14       -77.9737   30.2045  -72.6682 C.ar      11 UNK        -0.0933 
     15 C15       -75.6967   30.4839  -73.7295 C.3       11 UNK         0.0166 
     16 S16       -75.0276   32.0701  -73.1371 S.3       11 UNK        -0.2615 
     17 C17       -73.6160   31.5393  -72.1035 C.3       11 UNK        -0.0865 
     18 CA        -72.2425   31.8152  -72.7892 C.3       10 UNK         0.0862 
     19 C         -70.9997   31.5829  -71.8726 C.2       10 UNK         0.5551 
     20 N         -71.1308   31.7027  -70.5574 N.am      10 UNK        -0.7319 
     21 O         -69.8890   31.3562  -72.3499 O.2       10 UNK        -0.5018 
     22 N         -72.1338   31.1520  -74.1007 N.am      10 UNK        -0.4509 
     23 C         -72.0433   29.8326  -74.3150 C.2       10 UNK         0.4899 
     24 O         -72.0007   28.9913  -73.4149 O.2       10 UNK        -0.4839 
     25 CA        -72.0682   29.4083  -75.7958 C.3       9 UNK         0.0222 
     26 CB        -70.8894   30.0020  -76.5986 C.3       9 UNK        -0.1966 
     27 N         -72.1731   27.9559  -75.9795 N.am      9 UNK        -0.4218 
     28 C         -71.2412   27.0137  -75.7634 C.2       9 UNK         0.5020 
     29 O         -70.0822   27.2518  -75.4181 O.2       9 UNK        -0.5274 
     30 CA        -71.6527   25.5413  -75.9759 C.3       8 UNK         0.0270 
     31 CB        -71.6914   24.7928  -74.6326 C.3       8 UNK        -0.1976 
     32 N         -72.9395   25.3691  -76.6588 N.am      8 UNK        -0.4313 
     33 C         -73.1583   25.6096  -77.9591 C.2       8 UNK         0.5041 
     34 O         -72.2744   25.9386  -78.7511 O.2       8 UNK        -0.5577 
     35 CA        -74.6109   25.4982  -78.4574 C.3       7 UNK         0.0284 
     36 CB        -74.9284   24.0568  -78.8850 C.3       7 UNK        -0.1958 
     37 N         -75.6015   25.9504  -77.4746 N.am      7 UNK        -0.4454 
     38 C         -75.7036   27.2038  -77.0086 C.2       7 UNK         0.5089 
     39 O         -74.9838   28.1325  -77.3748 O.2       7 UNK        -0.5125 
     40 CA        -76.7489   27.4537  -75.9078 C.3       6 UNK         0.0408 
     41 CB        -78.1529   27.6159  -76.5021 C.3       6 UNK        -0.1791 
     42 N         -76.7545   26.4046  -74.8865 N.am      6 UNK        -0.4762 
     43 C         -75.7122   26.1404  -74.0838 C.2       6 UNK         0.5007 
     44 O         -74.6690   26.7929  -74.0868 O.2       6 UNK        -0.5032 
     45 CA        -75.8201   24.8932  -73.1857 C.3       5 UNK         0.0783 
     46 C46       -76.5442   25.1774  -71.8477 C.3       11 UNK        -0.0857 
     47 S47       -75.4249   25.9577  -70.6367 S.3       11 UNK        -0.2512 
     48 C48       -76.4817   27.2440  -69.8917 C.3       11 UNK         0.0225 
     49 N         -76.4015   23.7580  -73.9103 N.am      5 UNK        -0.4615 
     50 C         -75.7584   23.1019  -74.8856 C.2       4 UNK         0.5053 
     51 O         -74.6263   23.3924  -75.2692 O.2       4 UNK        -0.5105 
     52 CA        -76.4985   21.9372  -75.5633 C.3       4 UNK         0.0263 
     53 CB        -76.3500   20.6531  -74.7317 C.3       4 UNK        -0.1981 
     54 N         -77.9185   22.1816  -75.8354 N.am      4 UNK        -0.4224 
     55 C         -78.4093   23.1962  -76.5609 C.2       3 UNK         0.4895 
     56 O         -77.7161   24.1126  -77.0058 O.2       3 UNK        -0.5091 
     57 CA        -79.9149   23.1797  -76.8676 C.3       3 UNK         0.0250 
     58 CB        -80.7466   22.2733  -75.9356 C.3       3 UNK        -0.1996 
     59 N         -80.4248   24.5446  -76.7932 N.am      3 UNK        -0.4254 
     60 C         -81.1991   25.1440  -77.7070 C.2       2 UNK         0.5004 
     61 O         -81.5790   24.5973  -78.7444 O.2       2 UNK        -0.5226 
     62 CA        -81.6191   26.6027  -77.4144 C.3       2 UNK         0.0269 
     63 CB        -82.9609   26.9815  -78.0780 C.3       2 UNK        -0.1926 
     64 N         -81.6314   26.9323  -75.9803 N.am      2 UNK        -0.4687 
     65 C         -82.3764   26.3509  -75.0266 C.2       1 UNK         0.5165 
     66 O         -83.2376   25.4980  -75.2504 O.2       1 UNK        -0.5079 
     67 H67       -79.3589   24.2479  -71.3646 H         1 UNK         0.0900 
     68 H68       -79.2250   23.2027  -72.7855 H         1 UNK         0.0900 
     69 H69       -80.7532   23.3206  -71.9222 H         1 UNK         0.0900 
     70 H70       -81.9988   25.2757  -72.0765 H         1 UNK         0.2959 
     71 H71       -83.0884   26.8668  -73.1183 H         1 UNK         0.1079 
     72 H72       -80.3010   28.0146  -73.6661 H         1 UNK         0.0837 
     73 H73       -81.7888   28.8786  -74.0194 H         1 UNK         0.0837 
     74 H74       -80.5406   30.7422  -72.4833 H         1 UNK         0.0685 
     75 H75       -80.4324   30.6412  -70.7428 H         1 UNK         0.0685 
     76 H76       -79.0039   28.2249  -70.1153 H         1 UNK         0.1434 
     77 H77       -75.1008   28.5892  -71.8562 H         1 UNK         0.1329 
     78 H78       -78.3454   30.9526  -73.3550 H         1 UNK         0.1335 
     79 H79       -74.8876   29.8012  -73.9898 H         1 UNK         0.0680 
     80 H80       -76.2446   30.6679  -74.6547 H         1 UNK         0.0680 
     81 H81       -73.7094   30.4853  -71.8410 H         1 UNK         0.1032 
     82 H82       -73.6993   32.0912  -71.1668 H         1 UNK         0.1032 
     83 H83       -72.2076   32.8820  -73.0132 H         1 UNK         0.0461 
     84 H84       -70.3177   31.5748  -69.9752 H         1 UNK         0.3453 
     85 H85       -72.0179   31.9194  -70.1327 H         1 UNK         0.3453 
     86 H86       -72.1497   31.7714  -74.8974 H         1 UNK         0.2984 
     87 H87       -72.9905   29.8120  -76.2163 H         1 UNK         0.0554 
     88 H88       -70.8833   29.6346  -77.6249 H         1 UNK         0.0847 
     89 H89       -69.9264   29.7580  -76.1491 H         1 UNK         0.0847 
     90 H90       -70.9518   31.0892  -76.6497 H         1 UNK         0.0847 
     91 H91       -73.1002   27.6331  -76.2282 H         1 UNK         0.3141 
     92 H92       -70.8809   25.0803  -76.5956 H         1 UNK         0.0743 
     93 H93       -72.4484   25.2053  -73.9651 H         1 UNK         0.0784 
     94 H94       -71.9072   23.7336  -74.7732 H         1 UNK         0.0784 
     95 H95       -70.7321   24.8616  -74.1179 H         1 UNK         0.0784 
     96 H96       -73.7083   25.0194  -76.0948 H         1 UNK         0.3213 
     97 H97       -74.7054   26.1414  -79.3349 H         1 UNK         0.0855 
     98 H98       -74.8582   23.3634  -78.0470 H         1 UNK         0.0814 
     99 H99       -74.2315   23.7146  -79.6512 H         1 UNK         0.0814 
    100 H100      -75.9331   23.9780  -79.3010 H         1 UNK         0.0814 
    101 H101      -76.2779   25.2594  -77.1522 H         1 UNK         0.3105 
    102 H102      -76.4884   28.3893  -75.4137 H         1 UNK         0.0547 
    103 H103      -78.1739   28.4196  -77.2393 H         1 UNK         0.0837 
    104 H104      -78.4851   26.7057  -77.0001 H         1 UNK         0.0837 
    105 H105      -78.8751   27.8661  -75.7266 H         1 UNK         0.0837 
    106 H106      -77.5901   25.8347  -74.8120 H         1 UNK         0.3020 
    107 H107      -74.7941   24.6011  -72.9461 H         1 UNK         0.1245 
    108 H108      -76.8826   24.2431  -71.3978 H         1 UNK         0.0781 
    109 H109      -77.4387   25.7836  -72.0010 H         1 UNK         0.0781 
    110 H110      -75.9107   27.7588  -69.1181 H         1 UNK         0.0836 
    111 H111      -77.3120   26.7514  -69.3830 H         1 UNK         0.0836 
    112 H112      -77.3458   23.4919  -73.6795 H         1 UNK         0.3022 
    113 H113      -76.0152   21.7692  -76.5277 H         1 UNK         0.0747 
    114 H114      -76.7583   19.7895  -75.2571 H         1 UNK         0.0793 
    115 H115      -75.2994   20.4381  -74.5299 H         1 UNK         0.0793 
    116 H116      -76.8569   20.7322  -73.7691 H         1 UNK         0.0793 
    117 H117      -78.5644   21.4761  -75.5122 H         1 UNK         0.3047 
    118 H118      -80.0094   22.8022  -77.8877 H         1 UNK         0.0822 
    119 H119      -81.8093   22.3504  -76.1671 H         1 UNK         0.0807 
    120 H120      -80.6224   22.5424  -74.8868 H         1 UNK         0.0807 
    121 H121      -80.4770   21.2228  -76.0503 H         1 UNK         0.0807 
    122 H122      -80.1341   25.0687  -75.9732 H         1 UNK         0.2946 
    123 H123      -80.8476   27.2267  -77.8679 H         1 UNK         0.1144 
    124 H124      -83.2330   28.0146  -77.8621 H         1 UNK         0.0793 
    125 H125      -83.7765   26.3414  -77.7404 H         1 UNK         0.0793 
    126 H126      -82.9023   26.8846  -79.1628 H         1 UNK         0.0793 
    127 H127      -80.9421   27.6075  -75.6839 H         1 UNK         0.2896 
@<TRIPOS>BOND
     1    1    2 1    
     2    1   67 1    
     3    1   68 1    
     4    1   69 1    
     5    2    3 2    
     6    2    4 am   BACKBONE|DICT|INTERRES
     7    4    5 1    
     8    4   70 1    
     9    5    6 1    
    10    5   65 1    
    11    5   71 1    
    12    6    7 1    
    13    6   72 1    
    14    6   73 1    
    15    7    8 1    
    16    8    9 1    
    17    8   74 1    
    18    8   75 1    
    19    9   10 ar   
    20    9   14 ar   
    21   10   11 ar   
    22   10   76 1    
    23   11   12 ar   
    24   11   48 1    
    25   12   13 ar   
    26   12   77 1    
    27   13   14 ar   
    28   13   15 1    
    29   14   78 1    
    30   15   16 1    
    31   15   79 1    
    32   15   80 1    
    33   16   17 1    
    34   17   18 1    
    35   17   81 1    
    36   17   82 1    
    37   18   19 1    
    38   18   22 1    
    39   18   83 1    
    40   19   20 am   BACKBONE|DICT|INTERRES
    41   19   21 2    
    42   20   84 1    
    43   20   85 1    
    44   22   23 am   BACKBONE|DICT|INTERRES
    45   22   86 1    
    46   23   24 2    
    47   23   25 1    
    48   25   26 1    
    49   25   27 1    
    50   25   87 1    
    51   26   88 1    
    52   26   89 1    
    53   26   90 1    
    54   27   28 am   BACKBONE|DICT|INTERRES
    55   27   91 1    
    56   28   29 2    
    57   28   30 1    
    58   30   31 1    
    59   30   32 1    
    60   30   92 1    
    61   31   93 1    
    62   31   94 1    
    63   31   95 1    
    64   32   33 am   BACKBONE|DICT|INTERRES
    65   32   96 1    
    66   33   34 2    
    67   33   35 1    
    68   35   36 1    
    69   35   37 1    
    70   35   97 1    
    71   36   98 1    
    72   36   99 1    
    73   36  100 1    
    74   37   38 am   BACKBONE|DICT|INTERRES
    75   37  101 1    
    76   38   39 2    
    77   38   40 1    
    78   40   41 1    
    79   40   42 1    
    80   40  102 1    
    81   41  103 1    
    82   41  104 1    
    83   41  105 1    
    84   42   43 am   BACKBONE|DICT|INTERRES
    85   42  106 1    
    86   43   44 2    
    87   43   45 1    
    88   45   46 1    
    89   45   49 1    
    90   45  107 1    
    91   46   47 1    
    92   46  108 1    
    93   46  109 1    
    94   47   48 1    
    95   48  110 1    
    96   48  111 1    
    97   49   50 am   BACKBONE|DICT|INTERRES
    98   49  112 1    
    99   50   51 2    
   100   50   52 1    
   101   52   53 1    
   102   52   54 1    
   103   52  113 1    
   104   53  114 1    
   105   53  115 1    
   106   53  116 1    
   107   54   55 am   BACKBONE|DICT|INTERRES
   108   54  117 1    
   109   55   56 2    
   110   55   57 1    
   111   57   58 1    
   112   57   59 1    
   113   57  118 1    
   114   58  119 1    
   115   58  120 1    
   116   58  121 1    
   117   59   60 am   BACKBONE|DICT|INTERRES
   118   59  122 1    
   119   60   61 2    
   120   60   62 1    
   121   62   63 1    
   122   62   64 1    
   123   62  123 1    
   124   63  124 1    
   125   63  125 1    
   126   63  126 1    
   127   64   65 am   BACKBONE|DICT|INTERRES
   128   64  127 1    
   129   65   66 2    
@<TRIPOS>SUBSTRUCTURE
     1 UNK         1 GROUP             0       ****    0 ROOT    
