@<TRIPOS>MOLECULE
3R135
127   129    1
SMALL
USER_CHARGES


@<TRIPOS>ATOM
      1 CA        -82.5506   23.9722  -74.5635 C.3       0 UNK        -0.1998 
      2 C         -82.3494   25.1584  -75.4939 C.2       0 UNK         0.4909 
      3 O         -82.9486   25.2094  -76.5685 O.2       0 UNK        -0.5240 
      4 N         -81.4919   26.1079  -75.1034 N.am      1 UNK        -0.4739 
      5 CA        -81.1478   27.3247  -75.8485 C.3       1 UNK         0.0864 
      6 C6        -80.7301   28.4713  -74.8905 C.3       11 UNK        -0.0881 
      7 S7        -79.4200   28.0184  -73.7003 S.3       11 UNK        -0.2682 
      8 C8        -79.5385   29.4065  -72.5325 C.3       11 UNK         0.0289 
      9 C9        -78.3274   29.4200  -71.6174 C.ar      11 UNK        -0.0687 
     10 C10       -78.2433   28.5095  -70.5619 C.ar      11 UNK        -0.0823 
     11 C11       -77.0832   28.4318  -69.7868 C.ar      11 UNK        -0.0830 
     12 C12       -76.0383   29.3309  -70.0214 C.ar      11 UNK        -0.1021 
     13 C13       -76.1193   30.2660  -71.0609 C.ar      11 UNK        -0.0753 
     14 C14       -77.2678   30.2996  -71.8581 C.ar      11 UNK        -0.0933 
     15 C15       -74.9857   31.2531  -71.3319 C.3       11 UNK         0.0166 
     16 S16       -73.3172   30.5284  -71.1865 S.3       11 UNK        -0.2615 
     17 C17       -73.2995   29.3333  -72.5661 C.3       11 UNK        -0.0865 
     18 CA        -71.8734   29.1167  -73.1353 C.3       10 UNK         0.0862 
     19 C         -70.9967   28.2504  -72.1855 C.2       10 UNK         0.5551 
     20 N         -70.1475   28.8730  -71.3794 N.am      10 UNK        -0.7319 
     21 O         -71.1019   27.0261  -72.1544 O.2       10 UNK        -0.5018 
     22 N         -71.9402   28.5626  -74.4930 N.am      10 UNK        -0.4509 
     23 C         -70.8958   28.4139  -75.3188 C.2       10 UNK         0.4899 
     24 O         -69.7571   28.8125  -75.0722 O.2       10 UNK        -0.4839 
     25 CA        -71.1724   27.7178  -76.6581 C.3       9 UNK         0.0222 
     26 CB        -71.3149   26.1993  -76.4577 C.3       9 UNK        -0.1966 
     27 N         -72.3863   28.2489  -77.2795 N.am      9 UNK        -0.4218 
     28 C         -72.4074   29.2133  -78.2111 C.2       9 UNK         0.5020 
     29 O         -71.3939   29.7305  -78.6833 O.2       9 UNK        -0.5274 
     30 CA        -73.7831   29.6797  -78.7271 C.3       8 UNK         0.0270 
     31 CB        -74.1240   28.9774  -80.0520 C.3       8 UNK        -0.1976 
     32 N         -74.8734   29.4581  -77.7758 N.am      8 UNK        -0.4313 
     33 C         -75.0480   30.1430  -76.6377 C.2       8 UNK         0.5041 
     34 O         -74.3496   31.0980  -76.2971 O.2       8 UNK        -0.5577 
     35 CA        -76.1786   29.6650  -75.7083 C.3       7 UNK         0.0284 
     36 CB        -77.4586   30.4722  -75.9732 C.3       7 UNK        -0.1958 
     37 N         -76.4742   28.2266  -75.7898 N.am      7 UNK        -0.4454 
     38 C         -75.5925   27.2432  -75.5641 C.2       7 UNK         0.5089 
     39 O         -74.3981   27.4480  -75.3443 O.2       7 UNK        -0.5125 
     40 CA        -76.1260   25.8012  -75.6214 C.3       6 UNK         0.0408 
     41 CB        -75.2556   24.8950  -76.5128 C.3       6 UNK        -0.1791 
     42 N         -76.2976   25.2357  -74.2802 N.am      6 UNK        -0.4762 
     43 C         -75.3710   25.0120  -73.3299 C.2       6 UNK         0.5007 
     44 O         -74.1559   25.1162  -73.4911 O.2       6 UNK        -0.5032 
     45 CA        -75.9095   24.6133  -71.9385 C.3       5 UNK         0.0783 
     46 C46       -76.1649   25.9025  -71.1229 C.3       11 UNK        -0.0857 
     47 S47       -76.9734   25.6447  -69.5034 S.3       11 UNK        -0.2512 
     48 C48       -76.9210   27.3187  -68.7576 C.3       11 UNK         0.0225 
     49 N         -77.1020   23.7662  -72.0504 N.am      5 UNK        -0.4615 
     50 C         -77.0832   22.5053  -72.4975 C.2       4 UNK         0.5053 
     51 O         -76.0496   21.8847  -72.7498 O.2       4 UNK        -0.5105 
     52 CA        -78.4354   21.8233  -72.7609 C.3       4 UNK         0.0263 
     53 CB        -79.6208   22.4160  -71.9620 C.3       4 UNK        -0.1981 
     54 N         -78.6985   21.8023  -74.2047 N.am      4 UNK        -0.4224 
     55 C         -78.9015   22.8623  -75.0007 C.2       3 UNK         0.4895 
     56 O         -79.0239   24.0207  -74.5889 O.2       3 UNK        -0.5091 
     57 CA        -78.9603   22.5841  -76.5109 C.3       3 UNK         0.0250 
     58 CB        -79.9352   21.4455  -76.8719 C.3       3 UNK        -0.1996 
     59 N         -79.3735   23.8066  -77.1880 N.am      3 UNK        -0.4254 
     60 C         -79.0092   24.2208  -78.4059 C.2       2 UNK         0.5004 
     61 O         -78.2451   23.5933  -79.1398 O.2       2 UNK        -0.5226 
     62 CA        -79.6164   25.5501  -78.9006 C.3       2 UNK         0.0269 
     63 CB        -80.4202   25.3341  -80.1944 C.3       2 UNK        -0.1926 
     64 N         -80.4989   26.1580  -77.8986 N.am      2 UNK        -0.4687 
     65 C         -80.1077   27.0163  -76.9496 C.2       1 UNK         0.5165 
     66 O         -78.9758   27.5003  -76.9049 O.2       1 UNK        -0.5079 
     67 H67       -81.8639   23.9998  -73.7176 H         1 UNK         0.0900 
     68 H68       -82.3866   23.0391  -75.1005 H         1 UNK         0.0900 
     69 H69       -83.5690   23.9682  -74.1763 H         1 UNK         0.0900 
     70 H70       -80.9743   25.9875  -74.2424 H         1 UNK         0.2959 
     71 H71       -82.0426   27.6689  -76.3726 H         1 UNK         0.1079 
     72 H72       -80.4148   29.3498  -75.4558 H         1 UNK         0.0837 
     73 H73       -81.6046   28.7889  -74.3202 H         1 UNK         0.0837 
     74 H74       -79.6118   30.3459  -73.0826 H         1 UNK         0.0685 
     75 H75       -80.4533   29.3142  -71.9452 H         1 UNK         0.0685 
     76 H76       -79.0479   27.8060  -70.3956 H         1 UNK         0.1434 
     77 H77       -75.1451   29.2813  -69.4142 H         1 UNK         0.1329 
     78 H78       -77.3342   31.0037  -72.6762 H         1 UNK         0.1335 
     79 H79       -75.0867   31.6955  -72.3245 H         1 UNK         0.0680 
     80 H80       -75.0689   32.0745  -70.6193 H         1 UNK         0.0680 
     81 H81       -73.9474   29.7243  -73.3508 H         1 UNK         0.1032 
     82 H82       -73.7509   28.3912  -72.2473 H         1 UNK         0.1032 
     83 H83       -71.4007   30.0960  -73.2383 H         1 UNK         0.0461 
     84 H84       -69.5789   28.3299  -70.7491 H         1 UNK         0.3453 
     85 H85       -70.0749   29.8785  -71.3823 H         1 UNK         0.3453 
     86 H86       -72.8314   28.1504  -74.7621 H         1 UNK         0.2984 
     87 H87       -70.3147   27.8861  -77.3129 H         1 UNK         0.0554 
     88 H88       -71.5095   25.6900  -77.4015 H         1 UNK         0.0847 
     89 H89       -72.1245   25.9523  -75.7695 H         1 UNK         0.0847 
     90 H90       -70.3994   25.7759  -76.0427 H         1 UNK         0.0847 
     91 H91       -73.2642   27.9343  -76.8793 H         1 UNK         0.3141 
     92 H92       -73.7135   30.7529  -78.9178 H         1 UNK         0.0743 
     93 H93       -73.3447   29.1497  -80.7960 H         1 UNK         0.0784 
     94 H94       -74.2198   27.8982  -79.9254 H         1 UNK         0.0784 
     95 H95       -75.0576   29.3521  -80.4721 H         1 UNK         0.0784 
     96 H96       -75.5130   28.7027  -77.9756 H         1 UNK         0.3213 
     97 H97       -75.8609   29.8691  -74.6848 H         1 UNK         0.0855 
     98 H98       -77.2574   31.5444  -75.9644 H         1 UNK         0.0814 
     99 H99       -78.2074   30.2840  -75.2066 H         1 UNK         0.0814 
    100 H100      -77.8978   30.2279  -76.9412 H         1 UNK         0.0814 
    101 H101      -77.4355   27.9749  -76.0199 H         1 UNK         0.3105 
    102 H102      -77.1222   25.8243  -76.0637 H         1 UNK         0.0547 
    103 H103      -75.1829   25.2985  -77.5232 H         1 UNK         0.0837 
    104 H104      -74.2402   24.7945  -76.1304 H         1 UNK         0.0837 
    105 H105      -75.6827   23.8956  -76.5930 H         1 UNK         0.0837 
    106 H106      -77.2652   25.0584  -74.0311 H         1 UNK         0.3020 
    107 H107      -75.1307   24.0365  -71.4341 H         1 UNK         0.1245 
    108 H108      -76.7948   26.5748  -71.7078 H         1 UNK         0.0781 
    109 H109      -75.2251   26.4331  -70.9554 H         1 UNK         0.0781 
    110 H110      -75.9764   27.4275  -68.2224 H         1 UNK         0.0836 
    111 H111      -77.7084   27.4007  -68.0072 H         1 UNK         0.0836 
    112 H112      -77.9906   24.2073  -71.8644 H         1 UNK         0.3022 
    113 H113      -78.3222   20.7835  -72.4499 H         1 UNK         0.0747 
    114 H114      -80.5329   21.8473  -72.1424 H         1 UNK         0.0793 
    115 H115      -79.4244   22.3738  -70.8898 H         1 UNK         0.0793 
    116 H116      -79.8304   23.4554  -72.2130 H         1 UNK         0.0793 
    117 H117      -78.5908   20.8982  -74.6429 H         1 UNK         0.3047 
    118 H118      -77.9514   22.3171  -76.8326 H         1 UNK         0.0822 
    119 H119      -79.9979   21.3091  -77.9518 H         1 UNK         0.0807 
    120 H120      -80.9425   21.6450  -76.5055 H         1 UNK         0.0807 
    121 H121      -79.6145   20.4915  -76.4529 H         1 UNK         0.0807 
    122 H122      -79.9172   24.4355  -76.6125 H         1 UNK         0.2946 
    123 H123      -78.7849   26.2241  -79.1194 H         1 UNK         0.1144 
    124 H124      -80.8266   26.2735  -80.5695 H         1 UNK         0.0793 
    125 H125      -81.2519   24.6450  -80.0421 H         1 UNK         0.0793 
    126 H126      -79.7913   24.9181  -80.9827 H         1 UNK         0.0793 
    127 H127      -81.4401   25.7821  -77.8284 H         1 UNK         0.2896 
@<TRIPOS>BOND
     1    1    2 1    
     2    1   67 1    
     3    1   68 1    
     4    1   69 1    
     5    2    3 2    
     6    2    4 am   BACKBONE|DICT|INTERRES
     7    4    5 1    
     8    4   70 1    
     9    5    6 1    
    10    5   65 1    
    11    5   71 1    
    12    6    7 1    
    13    6   72 1    
    14    6   73 1    
    15    7    8 1    
    16    8    9 1    
    17    8   74 1    
    18    8   75 1    
    19    9   10 ar   
    20    9   14 ar   
    21   10   11 ar   
    22   10   76 1    
    23   11   12 ar   
    24   11   48 1    
    25   12   13 ar   
    26   12   77 1    
    27   13   14 ar   
    28   13   15 1    
    29   14   78 1    
    30   15   16 1    
    31   15   79 1    
    32   15   80 1    
    33   16   17 1    
    34   17   18 1    
    35   17   81 1    
    36   17   82 1    
    37   18   19 1    
    38   18   22 1    
    39   18   83 1    
    40   19   20 am   BACKBONE|DICT|INTERRES
    41   19   21 2    
    42   20   84 1    
    43   20   85 1    
    44   22   23 am   BACKBONE|DICT|INTERRES
    45   22   86 1    
    46   23   24 2    
    47   23   25 1    
    48   25   26 1    
    49   25   27 1    
    50   25   87 1    
    51   26   88 1    
    52   26   89 1    
    53   26   90 1    
    54   27   28 am   BACKBONE|DICT|INTERRES
    55   27   91 1    
    56   28   29 2    
    57   28   30 1    
    58   30   31 1    
    59   30   32 1    
    60   30   92 1    
    61   31   93 1    
    62   31   94 1    
    63   31   95 1    
    64   32   33 am   BACKBONE|DICT|INTERRES
    65   32   96 1    
    66   33   34 2    
    67   33   35 1    
    68   35   36 1    
    69   35   37 1    
    70   35   97 1    
    71   36   98 1    
    72   36   99 1    
    73   36  100 1    
    74   37   38 am   BACKBONE|DICT|INTERRES
    75   37  101 1    
    76   38   39 2    
    77   38   40 1    
    78   40   41 1    
    79   40   42 1    
    80   40  102 1    
    81   41  103 1    
    82   41  104 1    
    83   41  105 1    
    84   42   43 am   BACKBONE|DICT|INTERRES
    85   42  106 1    
    86   43   44 2    
    87   43   45 1    
    88   45   46 1    
    89   45   49 1    
    90   45  107 1    
    91   46   47 1    
    92   46  108 1    
    93   46  109 1    
    94   47   48 1    
    95   48  110 1    
    96   48  111 1    
    97   49   50 am   BACKBONE|DICT|INTERRES
    98   49  112 1    
    99   50   51 2    
   100   50   52 1    
   101   52   53 1    
   102   52   54 1    
   103   52  113 1    
   104   53  114 1    
   105   53  115 1    
   106   53  116 1    
   107   54   55 am   BACKBONE|DICT|INTERRES
   108   54  117 1    
   109   55   56 2    
   110   55   57 1    
   111   57   58 1    
   112   57   59 1    
   113   57  118 1    
   114   58  119 1    
   115   58  120 1    
   116   58  121 1    
   117   59   60 am   BACKBONE|DICT|INTERRES
   118   59  122 1    
   119   60   61 2    
   120   60   62 1    
   121   62   63 1    
   122   62   64 1    
   123   62  123 1    
   124   63  124 1    
   125   63  125 1    
   126   63  126 1    
   127   64   65 am   BACKBONE|DICT|INTERRES
   128   64  127 1    
   129   65   66 2    
@<TRIPOS>SUBSTRUCTURE
     1 UNK         1 GROUP             0       ****    0 ROOT    
