@<TRIPOS>MOLECULE
3R135
127   129    1
SMALL
USER_CHARGES


@<TRIPOS>ATOM
      1 CA        -81.5745   22.6791  -72.6677 C.3       0 UNK        -0.1998 
      2 C         -80.2815   23.0401  -71.9417 C.2       0 UNK         0.4909 
      3 O         -79.4515   22.1625  -71.7173 O.2       0 UNK        -0.5240 
      4 N         -80.0620   24.3019  -71.5488 N.am      1 UNK        -0.4739 
      5 CA        -80.8842   25.4791  -71.8415 C.3       1 UNK         0.0864 
      6 C6        -80.7080   26.5479  -70.7380 C.3       11 UNK        -0.0881 
      7 S7        -81.8942   27.9276  -70.8878 S.3       11 UNK        -0.2682 
      8 C8        -80.9589   29.3028  -70.1428 C.3       11 UNK         0.0289 
      9 C9        -79.7265   29.6772  -70.9554 C.ar      11 UNK        -0.0687 
     10 C10       -79.8649   30.3269  -72.1859 C.ar      11 UNK        -0.0823 
     11 C11       -78.7390   30.6774  -72.9387 C.ar      11 UNK        -0.0830 
     12 C12       -77.4658   30.3896  -72.4354 C.ar      11 UNK        -0.1021 
     13 C13       -77.3153   29.7227  -71.2173 C.ar      11 UNK        -0.0753 
     14 C14       -78.4476   29.3759  -70.4764 C.ar      11 UNK        -0.0933 
     15 C15       -75.9261   29.3574  -70.7247 C.3       11 UNK         0.0166 
     16 S16       -75.3184   27.8850  -71.5992 S.3       11 UNK        -0.2615 
     17 C17       -73.5790   27.8398  -71.0516 C.3       11 UNK        -0.0865 
     18 CA        -72.6609   28.8392  -71.8078 C.3       10 UNK         0.0862 
     19 C         -71.1847   28.7062  -71.3272 C.2       10 UNK         0.5551 
     20 N         -70.2252   28.3631  -72.1799 N.am      10 UNK        -0.7319 
     21 O         -70.9056   28.9231  -70.1506 O.2       10 UNK        -0.5018 
     22 N         -72.8408   28.7579  -73.2645 N.am      10 UNK        -0.4509 
     23 C         -72.4775   29.7019  -74.1416 C.2       10 UNK         0.4899 
     24 O         -72.0271   30.8019  -73.8176 O.2       10 UNK        -0.4839 
     25 CA        -72.6389   29.3404  -75.6320 C.3       9 UNK         0.0222 
     26 CB        -71.7357   30.1833  -76.5567 C.3       9 UNK        -0.1966 
     27 N         -72.4661   27.9035  -75.8995 N.am      9 UNK        -0.4218 
     28 C         -71.3791   27.1648  -75.6235 C.2       9 UNK         0.5020 
     29 O         -70.3437   27.6281  -75.1419 O.2       9 UNK        -0.5274 
     30 CA        -71.4584   25.6504  -75.8600 C.3       8 UNK         0.0270 
     31 CB        -71.5845   24.9189  -74.5111 C.3       8 UNK        -0.1976 
     32 N         -72.5833   25.2517  -76.7120 N.am      8 UNK        -0.4313 
     33 C         -72.4529   24.7041  -77.9264 C.2       8 UNK         0.5041 
     34 O         -71.3797   24.6031  -78.5234 O.2       8 UNK        -0.5577 
     35 CA        -73.7178   24.1161  -78.5692 C.3       7 UNK         0.0284 
     36 CB        -74.0582   22.7604  -77.9280 C.3       7 UNK        -0.1958 
     37 N         -74.8867   24.9965  -78.5101 N.am      7 UNK        -0.4454 
     38 C         -75.0706   26.0463  -79.3229 C.2       7 UNK         0.5089 
     39 O         -74.2255   26.4506  -80.1222 O.2       7 UNK        -0.5125 
     40 CA        -76.4416   26.7435  -79.2647 C.3       6 UNK         0.0408 
     41 CB        -77.5229   25.8833  -79.9387 C.3       6 UNK        -0.1791 
     42 N         -76.8574   27.0714  -77.9026 N.am      6 UNK        -0.4762 
     43 C         -76.2857   28.0170  -77.1446 C.2       6 UNK         0.5007 
     44 O         -75.3721   28.7412  -77.5372 O.2       6 UNK        -0.5032 
     45 CA        -76.7952   28.1433  -75.6921 C.3       5 UNK         0.0783 
     46 C46       -78.1054   28.9704  -75.6240 C.3       11 UNK        -0.0857 
     47 S47       -77.7753   30.7652  -75.5915 S.3       11 UNK        -0.2512 
     48 C48       -78.9189   31.3580  -74.2939 C.3       11 UNK         0.0225 
     49 N         -76.9394   26.8332  -75.0498 N.am      5 UNK        -0.4615 
     50 C         -75.9552   25.9364  -74.8965 C.2       4 UNK         0.5053 
     51 O         -74.7827   26.1431  -75.2091 O.2       4 UNK        -0.5105 
     52 CA        -76.3547   24.5510  -74.3679 C.3       4 UNK         0.0263 
     53 CB        -76.3796   24.5327  -72.8320 C.3       4 UNK        -0.1981 
     54 N         -77.6507   24.1199  -74.8979 N.am      4 UNK        -0.4224 
     55 C         -77.8620   23.7696  -76.1755 C.2       3 UNK         0.4895 
     56 O         -76.9753   23.7251  -77.0265 O.2       3 UNK        -0.5091 
     57 CA        -79.3117   23.4622  -76.5877 C.3       3 UNK         0.0250 
     58 CB        -79.7056   22.0379  -76.1646 C.3       3 UNK        -0.1996 
     59 N         -80.2718   24.4231  -76.0408 N.am      3 UNK        -0.4254 
     60 C         -80.2925   25.7320  -76.3320 C.2       2 UNK         0.5004 
     61 O         -79.5521   26.2596  -77.1606 O.2       2 UNK        -0.5226 
     62 CA        -81.2659   26.6089  -75.5214 C.3       2 UNK         0.0269 
     63 CB        -82.6242   26.7037  -76.2332 C.3       2 UNK        -0.1926 
     64 N         -81.4682   26.1571  -74.1370 N.am      2 UNK        -0.4687 
     65 C         -80.4887   26.0125  -73.2319 C.2       1 UNK         0.5165 
     66 O         -79.3027   26.2413  -73.4746 O.2       1 UNK        -0.5079 
     67 H67       -81.5644   21.6297  -72.9625 H         1 UNK         0.0900 
     68 H68       -81.7091   23.2714  -73.5700 H         1 UNK         0.0900 
     69 H69       -82.4347   22.8292  -72.0158 H         1 UNK         0.0900 
     70 H70       -79.1876   24.5059  -71.0866 H         1 UNK         0.2959 
     71 H71       -81.9366   25.1897  -71.8523 H         1 UNK         0.1079 
     72 H72       -80.8607   26.0956  -69.7567 H         1 UNK         0.0837 
     73 H73       -79.6837   26.9224  -70.7373 H         1 UNK         0.0837 
     74 H74       -81.6137   30.1719  -70.0655 H         1 UNK         0.0685 
     75 H75       -80.6850   29.0361  -69.1207 H         1 UNK         0.0685 
     76 H76       -80.8556   30.5482  -72.5592 H         1 UNK         0.1434 
     77 H77       -76.5860   30.6533  -73.0060 H         1 UNK         0.1329 
     78 H78       -78.3330   28.8599  -69.5329 H         1 UNK         0.1335 
     79 H79       -75.2497   30.1961  -70.8940 H         1 UNK         0.0680 
     80 H80       -75.9303   29.1684  -69.6502 H         1 UNK         0.0680 
     81 H81       -73.5448   28.0243  -69.9760 H         1 UNK         0.1032 
     82 H82       -73.2181   26.8191  -71.1918 H         1 UNK         0.1032 
     83 H83       -72.9692   29.8434  -71.5124 H         1 UNK         0.0461 
     84 H84       -70.4262   28.1940  -73.1588 H         1 UNK         0.3453 
     85 H85       -69.2779   28.2866  -71.8458 H         1 UNK         0.3453 
     86 H86       -73.2230   27.8921  -73.6161 H         1 UNK         0.2984 
     87 H87       -73.6719   29.5833  -75.8739 H         1 UNK         0.0554 
     88 H88       -71.8899   29.9224  -77.6036 H         1 UNK         0.0847 
     89 H89       -70.6786   30.0456  -76.3273 H         1 UNK         0.0847 
     90 H90       -71.9543   31.2469  -76.4547 H         1 UNK         0.0847 
     91 H91       -73.2917   27.4192  -76.2298 H         1 UNK         0.3141 
     92 H92       -70.5102   25.3539  -76.3131 H         1 UNK         0.0743 
     93 H93       -70.7524   25.1666  -73.8503 H         1 UNK         0.0784 
     94 H94       -72.5048   25.1843  -73.9891 H         1 UNK         0.0784 
     95 H95       -71.5773   23.8372  -74.6464 H         1 UNK         0.0784 
     96 H96       -73.5092   25.3421  -76.2983 H         1 UNK         0.3213 
     97 H97       -73.4907   23.9304  -79.6217 H         1 UNK         0.0855 
     98 H98       -74.3203   22.8645  -76.8744 H         1 UNK         0.0814 
     99 H99       -73.2114   22.0753  -77.9878 H         1 UNK         0.0814 
    100 H100      -74.8973   22.2827  -78.4341 H         1 UNK         0.0814 
    101 H101      -75.6527   24.6987  -77.9085 H         1 UNK         0.3105 
    102 H102      -76.3636   27.6774  -79.8255 H         1 UNK         0.0547 
    103 H103      -78.4775   26.4082  -79.9780 H         1 UNK         0.0837 
    104 H104      -77.2444   25.6382  -80.9644 H         1 UNK         0.0837 
    105 H105      -77.6835   24.9432  -79.4100 H         1 UNK         0.0837 
    106 H106      -77.6533   26.5618  -77.5271 H         1 UNK         0.3020 
    107 H107      -76.0233   28.6646  -75.1213 H         1 UNK         0.1245 
    108 H108      -78.6630   28.7017  -74.7263 H         1 UNK         0.0781 
    109 H109      -78.7736   28.7484  -76.4578 H         1 UNK         0.0781 
    110 H110      -78.7767   32.4317  -74.1660 H         1 UNK         0.0836 
    111 H111      -79.9397   31.2232  -74.6550 H         1 UNK         0.0836 
    112 H112      -77.8590   26.5994  -74.6866 H         1 UNK         0.3022 
    113 H113      -75.5983   23.8373  -74.7015 H         1 UNK         0.0747 
    114 H114      -76.6539   23.5494  -72.4494 H         1 UNK         0.0793 
    115 H115      -77.0831   25.2604  -72.4265 H         1 UNK         0.0793 
    116 H116      -75.3962   24.7765  -72.4276 H         1 UNK         0.0793 
    117 H117      -78.4420   24.2084  -74.2771 H         1 UNK         0.3047 
    118 H118      -79.3646   23.5229  -77.6771 H         1 UNK         0.0822 
    119 H119      -79.0206   21.3035  -76.5911 H         1 UNK         0.0807 
    120 H120      -80.7070   21.7825  -76.5116 H         1 UNK         0.0807 
    121 H121      -79.6819   21.9122  -75.0814 H         1 UNK         0.0807 
    122 H122      -80.9403   24.0755  -75.3715 H         1 UNK         0.2946 
    123 H123      -80.8346   27.6109  -75.4773 H         1 UNK         0.1144 
    124 H124      -82.5031   27.0572  -77.2584 H         1 UNK         0.0793 
    125 H125      -83.2889   27.4051  -75.7285 H         1 UNK         0.0793 
    126 H126      -83.1265   25.7367  -76.2791 H         1 UNK         0.0793 
    127 H127      -82.4226   25.9730  -73.8614 H         1 UNK         0.2896 
@<TRIPOS>BOND
     1    1    2 1    
     2    1   67 1    
     3    1   68 1    
     4    1   69 1    
     5    2    3 2    
     6    2    4 am   BACKBONE|DICT|INTERRES
     7    4    5 1    
     8    4   70 1    
     9    5    6 1    
    10    5   65 1    
    11    5   71 1    
    12    6    7 1    
    13    6   72 1    
    14    6   73 1    
    15    7    8 1    
    16    8    9 1    
    17    8   74 1    
    18    8   75 1    
    19    9   10 ar   
    20    9   14 ar   
    21   10   11 ar   
    22   10   76 1    
    23   11   12 ar   
    24   11   48 1    
    25   12   13 ar   
    26   12   77 1    
    27   13   14 ar   
    28   13   15 1    
    29   14   78 1    
    30   15   16 1    
    31   15   79 1    
    32   15   80 1    
    33   16   17 1    
    34   17   18 1    
    35   17   81 1    
    36   17   82 1    
    37   18   19 1    
    38   18   22 1    
    39   18   83 1    
    40   19   20 am   BACKBONE|DICT|INTERRES
    41   19   21 2    
    42   20   84 1    
    43   20   85 1    
    44   22   23 am   BACKBONE|DICT|INTERRES
    45   22   86 1    
    46   23   24 2    
    47   23   25 1    
    48   25   26 1    
    49   25   27 1    
    50   25   87 1    
    51   26   88 1    
    52   26   89 1    
    53   26   90 1    
    54   27   28 am   BACKBONE|DICT|INTERRES
    55   27   91 1    
    56   28   29 2    
    57   28   30 1    
    58   30   31 1    
    59   30   32 1    
    60   30   92 1    
    61   31   93 1    
    62   31   94 1    
    63   31   95 1    
    64   32   33 am   BACKBONE|DICT|INTERRES
    65   32   96 1    
    66   33   34 2    
    67   33   35 1    
    68   35   36 1    
    69   35   37 1    
    70   35   97 1    
    71   36   98 1    
    72   36   99 1    
    73   36  100 1    
    74   37   38 am   BACKBONE|DICT|INTERRES
    75   37  101 1    
    76   38   39 2    
    77   38   40 1    
    78   40   41 1    
    79   40   42 1    
    80   40  102 1    
    81   41  103 1    
    82   41  104 1    
    83   41  105 1    
    84   42   43 am   BACKBONE|DICT|INTERRES
    85   42  106 1    
    86   43   44 2    
    87   43   45 1    
    88   45   46 1    
    89   45   49 1    
    90   45  107 1    
    91   46   47 1    
    92   46  108 1    
    93   46  109 1    
    94   47   48 1    
    95   48  110 1    
    96   48  111 1    
    97   49   50 am   BACKBONE|DICT|INTERRES
    98   49  112 1    
    99   50   51 2    
   100   50   52 1    
   101   52   53 1    
   102   52   54 1    
   103   52  113 1    
   104   53  114 1    
   105   53  115 1    
   106   53  116 1    
   107   54   55 am   BACKBONE|DICT|INTERRES
   108   54  117 1    
   109   55   56 2    
   110   55   57 1    
   111   57   58 1    
   112   57   59 1    
   113   57  118 1    
   114   58  119 1    
   115   58  120 1    
   116   58  121 1    
   117   59   60 am   BACKBONE|DICT|INTERRES
   118   59  122 1    
   119   60   61 2    
   120   60   62 1    
   121   62   63 1    
   122   62   64 1    
   123   62  123 1    
   124   63  124 1    
   125   63  125 1    
   126   63  126 1    
   127   64   65 am   BACKBONE|DICT|INTERRES
   128   64  127 1    
   129   65   66 2    
@<TRIPOS>SUBSTRUCTURE
     1 UNK         1 GROUP             0       ****    0 ROOT    
