@<TRIPOS>MOLECULE
3R135
127   129    1
SMALL
USER_CHARGES


@<TRIPOS>ATOM
      1 CA        -83.5888   25.6823  -72.8973 C.3       0 UNK        -0.1998 
      2 C         -82.9883   26.1710  -74.2061 C.2       0 UNK         0.4909 
      3 O         -83.4079   25.7329  -75.2776 O.2       0 UNK        -0.5240 
      4 N         -81.9978   27.0672  -74.1293 N.am      1 UNK        -0.4739 
      5 CA        -81.2501   27.6228  -75.2615 C.3       1 UNK         0.0864 
      6 C6        -80.3888   28.8516  -74.8558 C.3       11 UNK        -0.0881 
      7 S7        -79.5582   28.7006  -73.2324 S.3       11 UNK        -0.2682 
      8 C8        -77.8929   29.3333  -73.5931 C.3       11 UNK         0.0289 
      9 C9        -76.8712   28.7453  -72.6332 C.ar      11 UNK        -0.0687 
     10 C10       -76.6261   27.3714  -72.6635 C.ar      11 UNK        -0.0823 
     11 C11       -75.6647   26.7992  -71.8309 C.ar      11 UNK        -0.0830 
     12 C12       -74.9524   27.6112  -70.9447 C.ar      11 UNK        -0.1021 
     13 C13       -75.1926   28.9892  -70.8950 C.ar      11 UNK        -0.0753 
     14 C14       -76.1521   29.5538  -71.7452 C.ar      11 UNK        -0.0933 
     15 C15       -74.4307   29.8508  -69.8966 C.3       11 UNK         0.0166 
     16 S16       -72.6812   30.0673  -70.3608 S.3       11 UNK        -0.2615 
     17 C17       -72.7599   31.4522  -71.5495 C.3       11 UNK        -0.0865 
     18 CA        -72.7231   30.9987  -73.0367 C.3       10 UNK         0.0862 
     19 C         -72.9350   32.1838  -74.0289 C.2       10 UNK         0.5551 
     20 N         -72.3035   32.1989  -75.1984 N.am      10 UNK        -0.7319 
     21 O         -73.7132   33.0928  -73.7515 O.2       10 UNK        -0.5018 
     22 N         -71.5810   30.1295  -73.3661 N.am      10 UNK        -0.4509 
     23 C         -70.2821   30.4610  -73.3500 C.2       10 UNK         0.4899 
     24 O         -69.8493   31.5356  -72.9333 O.2       10 UNK        -0.4839 
     25 CA        -69.2886   29.4343  -73.9331 C.3       9 UNK         0.0222 
     26 CB        -68.6507   28.6085  -72.8044 C.3       9 UNK        -0.1966 
     27 N         -69.8836   28.5252  -74.9203 N.am      9 UNK        -0.4218 
     28 C         -70.4285   28.8941  -76.0892 C.2       9 UNK         0.5020 
     29 O         -70.4177   30.0512  -76.5142 O.2       9 UNK        -0.5274 
     30 CA        -71.1839   27.8117  -76.8890 C.3       8 UNK         0.0270 
     31 CB        -70.7930   26.3623  -76.5195 C.3       8 UNK        -0.1976 
     32 N         -72.6363   27.9997  -76.7737 N.am      8 UNK        -0.4313 
     33 C         -73.3436   28.0831  -75.6382 C.2       8 UNK         0.5041 
     34 O         -72.8675   27.8979  -74.5185 O.2       8 UNK        -0.5577 
     35 CA        -74.8181   28.4880  -75.7541 C.3       7 UNK         0.0284 
     36 CB        -75.0162   29.8185  -76.5100 C.3       7 UNK        -0.1958 
     37 N         -75.6779   27.4296  -76.2857 N.am      7 UNK        -0.4454 
     38 C         -75.6976   26.9134  -77.5213 C.2       7 UNK         0.5089 
     39 O         -74.9318   27.2487  -78.4273 O.2       7 UNK        -0.5125 
     40 CA        -76.8037   25.8721  -77.7759 C.3       6 UNK         0.0408 
     41 CB        -76.6335   25.1070  -79.1071 C.3       6 UNK        -0.1791 
     42 N         -77.0018   24.9642  -76.6333 N.am      6 UNK        -0.4762 
     43 C         -76.1218   24.0469  -76.1899 C.2       6 UNK         0.5007 
     44 O         -75.0737   23.7825  -76.7805 O.2       6 UNK        -0.5032 
     45 CA        -76.4217   23.3009  -74.8690 C.3       5 UNK         0.0783 
     46 C46       -75.1992   23.2863  -73.8974 C.3       11 UNK        -0.0857 
     47 S47       -74.5302   24.9295  -73.4712 S.3       11 UNK        -0.2512 
     48 C48       -75.3973   25.3074  -71.9202 C.3       11 UNK         0.0225 
     49 N         -77.6843   23.7077  -74.2319 N.am      5 UNK        -0.4615 
     50 C         -78.3117   22.9766  -73.2995 C.2       4 UNK         0.5053 
     51 O         -77.8702   21.9242  -72.8382 O.2       4 UNK        -0.5105 
     52 CA        -79.6864   23.4742  -72.8327 C.3       4 UNK         0.0263 
     53 CB        -79.6310   24.8921  -72.2365 C.3       4 UNK        -0.1981 
     54 N         -80.6363   23.4151  -73.9426 N.am      4 UNK        -0.4224 
     55 C         -81.2494   22.2906  -74.3475 C.2       3 UNK         0.4895 
     56 O         -81.1662   21.2156  -73.7526 O.2       3 UNK        -0.5091 
     57 CA        -82.1013   22.3576  -75.6278 C.3       3 UNK         0.0250 
     58 CB        -83.6013   22.3224  -75.2910 C.3       3 UNK        -0.1996 
     59 N         -81.8086   23.5365  -76.4463 N.am      3 UNK        -0.4254 
     60 C         -80.7512   23.6349  -77.2658 C.2       2 UNK         0.5004 
     61 O         -79.9430   22.7259  -77.4533 O.2       2 UNK        -0.5226 
     62 CA        -80.5359   24.9832  -77.9730 C.3       2 UNK         0.0269 
     63 CB        -81.2442   24.9965  -79.3365 C.3       2 UNK        -0.1926 
     64 N         -80.9807   26.1342  -77.1822 N.am      2 UNK        -0.4687 
     65 C         -80.4668   26.5154  -76.0037 C.2       1 UNK         0.5165 
     66 O         -79.4807   25.9791  -75.4851 O.2       1 UNK        -0.5079 
     67 H67       -83.3060   24.6455  -72.7179 H         1 UNK         0.0900 
     68 H68       -84.6761   25.7385  -72.9385 H         1 UNK         0.0900 
     69 H69       -83.2516   26.2781  -72.0493 H         1 UNK         0.0900 
     70 H70       -81.6707   27.3783  -73.2247 H         1 UNK         0.2959 
     71 H71       -81.9981   28.0017  -75.9620 H         1 UNK         0.1079 
     72 H72       -81.0361   29.7275  -74.7896 H         1 UNK         0.0837 
     73 H73       -79.6665   29.0917  -75.6379 H         1 UNK         0.0837 
     74 H74       -77.6074   29.0669  -74.6109 H         1 UNK         0.0685 
     75 H75       -77.9019   30.4232  -73.5443 H         1 UNK         0.0685 
     76 H76       -77.1770   26.7457  -73.3514 H         1 UNK         0.1434 
     77 H77       -74.2044   27.1755  -70.2964 H         1 UNK         0.1329 
     78 H78       -76.3384   30.6186  -71.7149 H         1 UNK         0.1335 
     79 H79       -74.9092   30.8228  -69.7684 H         1 UNK         0.0680 
     80 H80       -74.4690   29.3685  -68.9188 H         1 UNK         0.0680 
     81 H81       -71.9269   32.1253  -71.3410 H         1 UNK         0.1032 
     82 H82       -73.6615   32.0335  -71.3500 H         1 UNK         0.1032 
     83 H83       -73.5979   30.3662  -73.1906 H         1 UNK         0.0461 
     84 H84       -72.4582   32.9694  -75.8286 H         1 UNK         0.3453 
     85 H85       -71.6614   31.4599  -75.4561 H         1 UNK         0.3453 
     86 H86       -71.8479   29.2175  -73.7337 H         1 UNK         0.2984 
     87 H87       -68.4982   29.9943  -74.4368 H         1 UNK         0.0554 
     88 H88       -67.8849   27.9337  -73.1872 H         1 UNK         0.0847 
     89 H89       -69.3930   28.0113  -72.2729 H         1 UNK         0.0847 
     90 H90       -68.1706   29.2574  -72.0705 H         1 UNK         0.0847 
     91 H91       -69.9981   27.5625  -74.6374 H         1 UNK         0.3141 
     92 H92       -70.9277   27.9677  -77.9379 H         1 UNK         0.0743 
     93 H93       -71.0909   26.0928  -75.5055 H         1 UNK         0.0784 
     94 H94       -71.2691   25.6506  -77.1944 H         1 UNK         0.0784 
     95 H95       -69.7160   26.2102  -76.6038 H         1 UNK         0.0784 
     96 H96       -73.1493   28.1096  -77.6420 H         1 UNK         0.3213 
     97 H97       -75.1507   28.6587  -74.7318 H         1 UNK         0.0855 
     98 H98       -74.4149   30.6103  -76.0665 H         1 UNK         0.0814 
     99 H99       -76.0553   30.1442  -76.4675 H         1 UNK         0.0814 
    100 H100      -74.7331   29.7516  -77.5603 H         1 UNK         0.0814 
    101 H101      -76.3169   27.0232  -75.6191 H         1 UNK         0.3105 
    102 H102      -77.7196   26.4579  -77.8558 H         1 UNK         0.0547 
    103 H103      -76.6937   25.7899  -79.9552 H         1 UNK         0.0837 
    104 H104      -75.6674   24.6062  -79.1703 H         1 UNK         0.0837 
    105 H105      -77.4094   24.3537  -79.2410 H         1 UNK         0.0837 
    106 H106      -77.8647   25.1225  -76.1248 H         1 UNK         0.3020 
    107 H107      -76.5751   22.2669  -75.1876 H         1 UNK         0.1245 
    108 H108      -74.3843   22.7236  -74.3562 H         1 UNK         0.0781 
    109 H109      -75.4252   22.7430  -72.9798 H         1 UNK         0.0781 
    110 H110      -74.7989   24.9604  -71.0766 H         1 UNK         0.0836 
    111 H111      -76.3449   24.7709  -71.8717 H         1 UNK         0.0836 
    112 H112      -78.1283   24.5526  -74.5643 H         1 UNK         0.3022 
    113 H113      -80.0292   22.8055  -72.0397 H         1 UNK         0.0747 
    114 H114      -80.6014   25.1889  -71.8392 H         1 UNK         0.0793 
    115 H115      -78.9194   24.9391  -71.4113 H         1 UNK         0.0793 
    116 H116      -79.3300   25.6431  -72.9638 H         1 UNK         0.0793 
    117 H117      -80.7165   24.2419  -74.5169 H         1 UNK         0.3047 
    118 H118      -81.8724   21.4640  -76.2131 H         1 UNK         0.0822 
    119 H119      -84.2111   22.3337  -76.1945 H         1 UNK         0.0807 
    120 H120      -83.9022   23.1680  -74.6736 H         1 UNK         0.0807 
    121 H121      -83.8554   21.4148  -74.7417 H         1 UNK         0.0807 
    122 H122      -82.4163   24.3413  -76.3185 H         1 UNK         0.2946 
    123 H123      -79.4675   25.0803  -78.1509 H         1 UNK         0.1144 
    124 H124      -80.9157   24.1598  -79.9550 H         1 UNK         0.0793 
    125 H125      -81.0242   25.9103  -79.8890 H         1 UNK         0.0793 
    126 H126      -82.3271   24.9187  -79.2312 H         1 UNK         0.0793 
    127 H127      -81.8142   26.6004  -77.5125 H         1 UNK         0.2896 
@<TRIPOS>BOND
     1    1    2 1    
     2    1   67 1    
     3    1   68 1    
     4    1   69 1    
     5    2    3 2    
     6    2    4 am   BACKBONE|DICT|INTERRES
     7    4    5 1    
     8    4   70 1    
     9    5    6 1    
    10    5   65 1    
    11    5   71 1    
    12    6    7 1    
    13    6   72 1    
    14    6   73 1    
    15    7    8 1    
    16    8    9 1    
    17    8   74 1    
    18    8   75 1    
    19    9   10 ar   
    20    9   14 ar   
    21   10   11 ar   
    22   10   76 1    
    23   11   12 ar   
    24   11   48 1    
    25   12   13 ar   
    26   12   77 1    
    27   13   14 ar   
    28   13   15 1    
    29   14   78 1    
    30   15   16 1    
    31   15   79 1    
    32   15   80 1    
    33   16   17 1    
    34   17   18 1    
    35   17   81 1    
    36   17   82 1    
    37   18   19 1    
    38   18   22 1    
    39   18   83 1    
    40   19   20 am   BACKBONE|DICT|INTERRES
    41   19   21 2    
    42   20   84 1    
    43   20   85 1    
    44   22   23 am   BACKBONE|DICT|INTERRES
    45   22   86 1    
    46   23   24 2    
    47   23   25 1    
    48   25   26 1    
    49   25   27 1    
    50   25   87 1    
    51   26   88 1    
    52   26   89 1    
    53   26   90 1    
    54   27   28 am   BACKBONE|DICT|INTERRES
    55   27   91 1    
    56   28   29 2    
    57   28   30 1    
    58   30   31 1    
    59   30   32 1    
    60   30   92 1    
    61   31   93 1    
    62   31   94 1    
    63   31   95 1    
    64   32   33 am   BACKBONE|DICT|INTERRES
    65   32   96 1    
    66   33   34 2    
    67   33   35 1    
    68   35   36 1    
    69   35   37 1    
    70   35   97 1    
    71   36   98 1    
    72   36   99 1    
    73   36  100 1    
    74   37   38 am   BACKBONE|DICT|INTERRES
    75   37  101 1    
    76   38   39 2    
    77   38   40 1    
    78   40   41 1    
    79   40   42 1    
    80   40  102 1    
    81   41  103 1    
    82   41  104 1    
    83   41  105 1    
    84   42   43 am   BACKBONE|DICT|INTERRES
    85   42  106 1    
    86   43   44 2    
    87   43   45 1    
    88   45   46 1    
    89   45   49 1    
    90   45  107 1    
    91   46   47 1    
    92   46  108 1    
    93   46  109 1    
    94   47   48 1    
    95   48  110 1    
    96   48  111 1    
    97   49   50 am   BACKBONE|DICT|INTERRES
    98   49  112 1    
    99   50   51 2    
   100   50   52 1    
   101   52   53 1    
   102   52   54 1    
   103   52  113 1    
   104   53  114 1    
   105   53  115 1    
   106   53  116 1    
   107   54   55 am   BACKBONE|DICT|INTERRES
   108   54  117 1    
   109   55   56 2    
   110   55   57 1    
   111   57   58 1    
   112   57   59 1    
   113   57  118 1    
   114   58  119 1    
   115   58  120 1    
   116   58  121 1    
   117   59   60 am   BACKBONE|DICT|INTERRES
   118   59  122 1    
   119   60   61 2    
   120   60   62 1    
   121   62   63 1    
   122   62   64 1    
   123   62  123 1    
   124   63  124 1    
   125   63  125 1    
   126   63  126 1    
   127   64   65 am   BACKBONE|DICT|INTERRES
   128   64  127 1    
   129   65   66 2    
@<TRIPOS>SUBSTRUCTURE
     1 UNK         1 GROUP             0       ****    0 ROOT    
