@<TRIPOS>MOLECULE
3R135
127   129    1
SMALL
USER_CHARGES


@<TRIPOS>ATOM
      1 CA        -81.0286   31.4816  -79.1471 C.3       0 UNK        -0.1998 
      2 C         -80.3220   30.3385  -78.4338 C.2       0 UNK         0.4909 
      3 O         -80.1309   29.2755  -79.0243 O.2       0 UNK        -0.5240 
      4 N         -79.9276   30.5528  -77.1716 N.am      1 UNK        -0.4739 
      5 CA        -79.2858   29.5557  -76.3076 C.3       1 UNK         0.0864 
      6 C6        -78.6432   30.2413  -75.0776 C.3       11 UNK        -0.0881 
      7 S7        -77.4006   29.2079  -74.2294 S.3       11 UNK        -0.2682 
      8 C8        -78.2944   28.8612  -72.6839 C.3       11 UNK         0.0289 
      9 C9        -77.4134   28.1452  -71.6756 C.ar      11 UNK        -0.0687 
     10 C10       -77.3906   26.7496  -71.6172 C.ar      11 UNK        -0.0823 
     11 C11       -76.6013   26.0932  -70.6676 C.ar      11 UNK        -0.0830 
     12 C12       -75.8306   26.8434  -69.7744 C.ar      11 UNK        -0.1021 
     13 C13       -75.8280   28.2393  -69.8407 C.ar      11 UNK        -0.0753 
     14 C14       -76.6301   28.8845  -70.7865 C.ar      11 UNK        -0.0933 
     15 C15       -74.9498   29.0529  -68.9013 C.3       11 UNK         0.0166 
     16 S16       -73.1677   28.8501  -69.2426 S.3       11 UNK        -0.2615 
     17 C17       -73.0437   29.0818  -71.0533 C.3       11 UNK        -0.0865 
     18 CA        -73.4408   30.4932  -71.5562 C.3       10 UNK         0.0862 
     19 C         -72.4292   31.5867  -71.1181 C.2       10 UNK         0.5551 
     20 N         -72.7902   32.4265  -70.1573 N.am      10 UNK        -0.7319 
     21 O         -71.3120   31.6613  -71.6263 O.2       10 UNK        -0.5018 
     22 N         -73.5957   30.4796  -73.0136 N.am      10 UNK        -0.4509 
     23 C         -74.2648   31.3865  -73.7288 C.2       10 UNK         0.4899 
     24 O         -74.9579   32.2698  -73.2229 O.2       10 UNK        -0.4839 
     25 CA        -74.1410   31.3351  -75.2664 C.3       9 UNK         0.0222 
     26 CB        -73.0524   32.3171  -75.7399 C.3       9 UNK        -0.1966 
     27 N         -73.9426   30.0151  -75.8909 N.am      9 UNK        -0.4218 
     28 C         -72.9485   29.1267  -75.7510 C.2       9 UNK         0.5020 
     29 O         -72.0358   29.2503  -74.9321 O.2       9 UNK        -0.5274 
     30 CA        -72.9647   27.9010  -76.6938 C.3       8 UNK         0.0270 
     31 CB        -71.9258   26.8376  -76.2905 C.3       8 UNK        -0.1976 
     32 N         -74.2760   27.2536  -76.8359 N.am      8 UNK        -0.4313 
     33 C         -75.3096   27.7350  -77.5435 C.2       8 UNK         0.5041 
     34 O         -75.2931   28.8483  -78.0718 O.2       8 UNK        -0.5577 
     35 CA        -76.5804   26.8673  -77.6580 C.3       7 UNK         0.0284 
     36 CB        -77.3867   27.1508  -78.9425 C.3       7 UNK        -0.1958 
     37 N         -76.3567   25.4289  -77.4960 N.am      7 UNK        -0.4454 
     38 C         -75.5733   24.6311  -78.2370 C.2       7 UNK         0.5089 
     39 O         -74.9720   25.0043  -79.2454 O.2       7 UNK        -0.5125 
     40 CA        -75.4163   23.1747  -77.7456 C.3       6 UNK         0.0408 
     41 CB        -74.0905   22.5415  -78.2160 C.3       6 UNK        -0.1791 
     42 N         -75.5641   23.0046  -76.2910 N.am      6 UNK        -0.4762 
     43 C         -74.8837   23.6465  -75.3242 C.2       6 UNK         0.5007 
     44 O         -74.0580   24.5296  -75.5588 O.2       6 UNK        -0.5032 
     45 CA        -75.1990   23.2677  -73.8626 C.3       5 UNK         0.0783 
     46 C46       -74.8718   24.4180  -72.8758 C.3       11 UNK        -0.0857 
     47 S47       -74.9651   23.8975  -71.1291 S.3       11 UNK        -0.2512 
     48 C48       -76.5747   24.5731  -70.6117 C.3       11 UNK         0.0225 
     49 N         -76.5917   22.8186  -73.7601 N.am      5 UNK        -0.4615 
     50 C         -76.9803   21.6324  -73.2743 C.2       4 UNK         0.5053 
     51 O         -76.2145   20.8089  -72.7733 O.2       4 UNK        -0.5105 
     52 CA        -78.4763   21.2818  -73.3932 C.3       4 UNK         0.0263 
     53 CB        -79.2208   21.6615  -72.1027 C.3       4 UNK        -0.1981 
     54 N         -79.1524   21.9030  -74.5374 N.am      4 UNK        -0.4224 
     55 C         -78.8049   21.7589  -75.8251 C.2       3 UNK         0.4895 
     56 O         -77.8745   21.0495  -76.2083 O.2       3 UNK        -0.5091 
     57 CA        -79.5883   22.5804  -76.8638 C.3       3 UNK         0.0250 
     58 CB        -80.6370   21.6992  -77.5611 C.3       3 UNK        -0.1996 
     59 N         -80.2430   23.7820  -76.3315 N.am      3 UNK        -0.4254 
     60 C         -79.6132   24.8275  -75.7795 C.2       2 UNK         0.5004 
     61 O         -78.3963   24.8686  -75.5648 O.2       2 UNK        -0.5226 
     62 CA        -80.4935   26.0136  -75.3760 C.3       2 UNK         0.0269 
     63 CB        -80.9073   25.9178  -73.8973 C.3       2 UNK        -0.1926 
     64 N         -79.7416   27.2397  -75.6200 N.am      2 UNK        -0.4687 
     65 C         -80.2746   28.4311  -75.9139 C.2       1 UNK         0.5165 
     66 O         -81.4872   28.6589  -75.8771 O.2       1 UNK        -0.5079 
     67 H67       -80.4781   31.7607  -80.0451 H         1 UNK         0.0900 
     68 H68       -81.1168   32.3651  -78.5152 H         1 UNK         0.0900 
     69 H69       -82.0315   31.1750  -79.4433 H         1 UNK         0.0900 
     70 H70       -80.1440   31.4368  -76.7337 H         1 UNK         0.2959 
     71 H71       -78.4877   29.1074  -76.9004 H         1 UNK         0.1079 
     72 H72       -78.1175   31.1438  -75.3947 H         1 UNK         0.0837 
     73 H73       -79.4090   30.5814  -74.3778 H         1 UNK         0.0837 
     74 H74       -78.6512   29.7979  -72.2526 H         1 UNK         0.0685 
     75 H75       -79.1820   28.2656  -72.9007 H         1 UNK         0.0685 
     76 H76       -77.9812   26.1749  -72.3157 H         1 UNK         0.1434 
     77 H77       -75.2093   26.3399  -69.0461 H         1 UNK         0.1329 
     78 H78       -76.6419   29.9644  -70.8404 H         1 UNK         0.1335 
     79 H79       -75.2038   30.1125  -68.9532 H         1 UNK         0.0680 
     80 H80       -75.1464   28.7468  -67.8729 H         1 UNK         0.0680 
     81 H81       -73.6712   28.3267  -71.5300 H         1 UNK         0.1032 
     82 H82       -72.0240   28.8427  -71.3614 H         1 UNK         0.1032 
     83 H83       -74.4160   30.7415  -71.1372 H         1 UNK         0.0461 
     84 H84       -72.1399   33.1346  -69.8546 H         1 UNK         0.3453 
     85 H85       -73.7012   32.3680  -69.7307 H         1 UNK         0.3453 
     86 H86       -72.9748   29.8620  -73.5322 H         1 UNK         0.2984 
     87 H87       -75.0959   31.6910  -75.6567 H         1 UNK         0.0554 
     88 H88       -73.0246   32.3858  -76.8274 H         1 UNK         0.0847 
     89 H89       -72.0614   32.0179  -75.3964 H         1 UNK         0.0847 
     90 H90       -73.2379   33.3217  -75.3574 H         1 UNK         0.0847 
     91 H91       -74.6228   29.7777  -76.6115 H         1 UNK         0.3141 
     92 H92       -72.6748   28.2738  -77.6784 H         1 UNK         0.0743 
     93 H93       -72.1202   26.4467  -75.2909 H         1 UNK         0.0784 
     94 H94       -71.9269   25.9967  -76.9845 H         1 UNK         0.0784 
     95 H95       -70.9169   27.2523  -76.2890 H         1 UNK         0.0784 
     96 H96       -74.3615   26.3333  -76.4127 H         1 UNK         0.3213 
     97 H97       -77.1940   27.1591  -76.8083 H         1 UNK         0.0855 
     98 H98       -77.6306   28.2095  -79.0339 H         1 UNK         0.0814 
     99 H99       -78.3296   26.6040  -78.9471 H         1 UNK         0.0814 
    100 H100      -76.8315   26.8734  -79.8386 H         1 UNK         0.0814 
    101 H101      -76.8387   25.0122  -76.7034 H         1 UNK         0.3105 
    102 H102      -76.2327   22.6129  -78.2014 H         1 UNK         0.0547 
    103 H103      -74.0208   22.5350  -79.3044 H         1 UNK         0.0837 
    104 H104      -73.2267   23.0896  -77.8378 H         1 UNK         0.0837 
    105 H105      -74.0041   21.5074  -77.8831 H         1 UNK         0.0837 
    106 H106      -76.2386   22.2990  -76.0114 H         1 UNK         0.3020 
    107 H107      -74.5230   22.4391  -73.6394 H         1 UNK         0.1245 
    108 H108      -75.5188   25.2757  -73.0603 H         1 UNK         0.0781 
    109 H109      -73.8527   24.7783  -73.0280 H         1 UNK         0.0781 
    110 H110      -76.7837   24.2477  -69.5917 H         1 UNK         0.0836 
    111 H111      -77.3599   24.1455  -71.2356 H         1 UNK         0.0836 
    112 H112      -77.2844   23.4306  -74.1753 H         1 UNK         0.3022 
    113 H113      -78.5438   20.1997  -73.5229 H         1 UNK         0.0747 
    114 H114      -80.2471   21.2940  -72.1147 H         1 UNK         0.0793 
    115 H115      -78.7345   21.2277  -71.2276 H         1 UNK         0.0793 
    116 H116      -79.2532   22.7416  -71.9568 H         1 UNK         0.0793 
    117 H117      -79.9329   22.5071  -74.3270 H         1 UNK         0.3047 
    118 H118      -78.8677   22.9104  -77.6153 H         1 UNK         0.0822 
    119 H119      -81.1275   22.2331  -78.3752 H         1 UNK         0.0807 
    120 H120      -81.4075   21.3613  -76.8668 H         1 UNK         0.0807 
    121 H121      -80.1756   20.8098  -77.9934 H         1 UNK         0.0807 
    122 H122      -81.2456   23.8279  -76.4483 H         1 UNK         0.2946 
    123 H123      -81.3887   26.0161  -76.0029 H         1 UNK         0.1144 
    124 H124      -81.5056   25.0242  -73.7160 H         1 UNK         0.0793 
    125 H125      -81.5097   26.7750  -73.5963 H         1 UNK         0.0793 
    126 H126      -80.0425   25.8689  -73.2374 H         1 UNK         0.0793 
    127 H127      -78.7383   27.1139  -75.6303 H         1 UNK         0.2896 
@<TRIPOS>BOND
     1    1    2 1    
     2    1   67 1    
     3    1   68 1    
     4    1   69 1    
     5    2    3 2    
     6    2    4 am   BACKBONE|DICT|INTERRES
     7    4    5 1    
     8    4   70 1    
     9    5    6 1    
    10    5   65 1    
    11    5   71 1    
    12    6    7 1    
    13    6   72 1    
    14    6   73 1    
    15    7    8 1    
    16    8    9 1    
    17    8   74 1    
    18    8   75 1    
    19    9   10 ar   
    20    9   14 ar   
    21   10   11 ar   
    22   10   76 1    
    23   11   12 ar   
    24   11   48 1    
    25   12   13 ar   
    26   12   77 1    
    27   13   14 ar   
    28   13   15 1    
    29   14   78 1    
    30   15   16 1    
    31   15   79 1    
    32   15   80 1    
    33   16   17 1    
    34   17   18 1    
    35   17   81 1    
    36   17   82 1    
    37   18   19 1    
    38   18   22 1    
    39   18   83 1    
    40   19   20 am   BACKBONE|DICT|INTERRES
    41   19   21 2    
    42   20   84 1    
    43   20   85 1    
    44   22   23 am   BACKBONE|DICT|INTERRES
    45   22   86 1    
    46   23   24 2    
    47   23   25 1    
    48   25   26 1    
    49   25   27 1    
    50   25   87 1    
    51   26   88 1    
    52   26   89 1    
    53   26   90 1    
    54   27   28 am   BACKBONE|DICT|INTERRES
    55   27   91 1    
    56   28   29 2    
    57   28   30 1    
    58   30   31 1    
    59   30   32 1    
    60   30   92 1    
    61   31   93 1    
    62   31   94 1    
    63   31   95 1    
    64   32   33 am   BACKBONE|DICT|INTERRES
    65   32   96 1    
    66   33   34 2    
    67   33   35 1    
    68   35   36 1    
    69   35   37 1    
    70   35   97 1    
    71   36   98 1    
    72   36   99 1    
    73   36  100 1    
    74   37   38 am   BACKBONE|DICT|INTERRES
    75   37  101 1    
    76   38   39 2    
    77   38   40 1    
    78   40   41 1    
    79   40   42 1    
    80   40  102 1    
    81   41  103 1    
    82   41  104 1    
    83   41  105 1    
    84   42   43 am   BACKBONE|DICT|INTERRES
    85   42  106 1    
    86   43   44 2    
    87   43   45 1    
    88   45   46 1    
    89   45   49 1    
    90   45  107 1    
    91   46   47 1    
    92   46  108 1    
    93   46  109 1    
    94   47   48 1    
    95   48  110 1    
    96   48  111 1    
    97   49   50 am   BACKBONE|DICT|INTERRES
    98   49  112 1    
    99   50   51 2    
   100   50   52 1    
   101   52   53 1    
   102   52   54 1    
   103   52  113 1    
   104   53  114 1    
   105   53  115 1    
   106   53  116 1    
   107   54   55 am   BACKBONE|DICT|INTERRES
   108   54  117 1    
   109   55   56 2    
   110   55   57 1    
   111   57   58 1    
   112   57   59 1    
   113   57  118 1    
   114   58  119 1    
   115   58  120 1    
   116   58  121 1    
   117   59   60 am   BACKBONE|DICT|INTERRES
   118   59  122 1    
   119   60   61 2    
   120   60   62 1    
   121   62   63 1    
   122   62   64 1    
   123   62  123 1    
   124   63  124 1    
   125   63  125 1    
   126   63  126 1    
   127   64   65 am   BACKBONE|DICT|INTERRES
   128   64  127 1    
   129   65   66 2    
@<TRIPOS>SUBSTRUCTURE
     1 UNK         1 GROUP             0       ****    0 ROOT    
