@<TRIPOS>MOLECULE
3R135
127   129    1
SMALL
USER_CHARGES


@<TRIPOS>ATOM
      1 CA        -85.7503   26.9609  -71.1858 C.3       0 UNK        -0.1998 
      2 C         -84.5038   27.6297  -70.6120 C.2       0 UNK         0.4909 
      3 O         -84.3274   27.6325  -69.3953 O.2       0 UNK        -0.5240 
      4 N         -83.6151   28.2125  -71.4300 N.am      1 UNK        -0.4739 
      5 CA        -83.6416   28.2567  -72.8996 C.3       1 UNK         0.0864 
      6 C6        -82.7324   29.3853  -73.4552 C.3       11 UNK        -0.0881 
      7 S7        -81.0200   29.3706  -72.8119 S.3       11 UNK        -0.2682 
      8 C8        -80.1214   28.6478  -74.2179 C.3       11 UNK         0.0289 
      9 C9        -78.6435   28.4712  -73.9046 C.ar      11 UNK        -0.0687 
     10 C10       -78.2299   27.4898  -72.9995 C.ar      11 UNK        -0.0823 
     11 C11       -76.8722   27.2983  -72.7218 C.ar      11 UNK        -0.0830 
     12 C12       -75.9239   28.1012  -73.3630 C.ar      11 UNK        -0.1021 
     13 C13       -76.3256   29.0965  -74.2604 C.ar      11 UNK        -0.0753 
     14 C14       -77.6861   29.2760  -74.5274 C.ar      11 UNK        -0.0933 
     15 C15       -75.2951   29.9550  -74.9779 C.3       11 UNK         0.0166 
     16 S16       -74.9964   31.5343  -74.1216 S.3       11 UNK        -0.2615 
     17 C17       -73.7892   31.0595  -72.8340 C.3       11 UNK        -0.0865 
     18 CA        -72.3231   31.3399  -73.2624 C.3       10 UNK         0.0862 
     19 C         -71.3308   31.1378  -72.0782 C.2       10 UNK         0.5551 
     20 N         -70.2997   30.3077  -72.1935 N.am      10 UNK        -0.7319 
     21 O         -71.4964   31.7578  -71.0307 O.2       10 UNK        -0.5018 
     22 N         -71.9700   30.5818  -74.4706 N.am      10 UNK        -0.4509 
     23 C         -71.0715   30.9493  -75.3897 C.2       10 UNK         0.4899 
     24 O         -70.4625   32.0201  -75.3673 O.2       10 UNK        -0.4839 
     25 CA        -70.8170   29.9315  -76.5208 C.3       9 UNK         0.0222 
     26 CB        -69.4651   30.1541  -77.2311 C.3       9 UNK        -0.1966 
     27 N         -70.9522   28.5313  -76.0893 N.am      9 UNK        -0.4218 
     28 C         -70.2462   27.9097  -75.1273 C.2       9 UNK         0.5020 
     29 O         -69.3978   28.4751  -74.4356 O.2       9 UNK        -0.5274 
     30 CA        -70.5511   26.4245  -74.8444 C.3       8 UNK         0.0270 
     31 CB        -71.2076   26.2736  -73.4611 C.3       8 UNK        -0.1976 
     32 N         -71.4055   25.7925  -75.8540 N.am      8 UNK        -0.4313 
     33 C         -71.0154   25.4882  -77.1025 C.2       8 UNK         0.5041 
     34 O         -69.8547   25.6087  -77.4961 O.2       8 UNK        -0.5577 
     35 CA        -72.0885   24.9990  -78.0984 C.3       7 UNK         0.0284 
     36 CB        -71.9636   23.4825  -78.3184 C.3       7 UNK        -0.1958 
     37 N         -73.4680   25.3101  -77.7113 N.am      7 UNK        -0.4454 
     38 C         -73.9720   26.5337  -77.4942 C.2       7 UNK         0.5089 
     39 O         -73.3383   27.5759  -77.6667 O.2       7 UNK        -0.5125 
     40 CA        -75.3915   26.6002  -76.8999 C.3       6 UNK         0.0408 
     41 CB        -76.4236   26.9078  -77.9933 C.3       6 UNK        -0.1791 
     42 N         -75.7902   25.4050  -76.1367 N.am      6 UNK        -0.4762 
     43 C         -75.1401   24.9513  -75.0488 C.2       6 UNK         0.5007 
     44 O         -74.1220   25.4925  -74.6144 O.2       6 UNK        -0.5032 
     45 CA        -75.6367   23.6613  -74.3627 C.3       5 UNK         0.0783 
     46 C46       -75.6281   23.7541  -72.8132 C.3       11 UNK        -0.0857 
     47 S47       -77.0665   24.5906  -72.0644 S.3       11 UNK        -0.2512 
     48 C48       -76.4372   26.2611  -71.6929 C.3       11 UNK         0.0225 
     49 N         -76.9127   23.1750  -74.8999 N.am      5 UNK        -0.4615 
     50 C         -77.0301   22.2520  -75.8645 C.2       4 UNK         0.5053 
     51 O         -76.0692   21.6947  -76.3953 O.2       4 UNK        -0.5105 
     52 CA        -78.4532   21.8981  -76.3397 C.3       4 UNK         0.0263 
     53 CB        -78.9995   20.7012  -75.5451 C.3       4 UNK        -0.1981 
     54 N         -79.4076   23.0078  -76.2548 N.am      4 UNK        -0.4224 
     55 C         -79.2756   24.1902  -76.8713 C.2       3 UNK         0.4895 
     56 O         -78.3403   24.4482  -77.6276 O.2       3 UNK        -0.5091 
     57 CA        -80.3315   25.2820  -76.6007 C.3       3 UNK         0.0250 
     58 CB        -81.0893   25.6342  -77.8914 C.3       3 UNK        -0.1996 
     59 N         -81.3099   24.9941  -75.5426 N.am      3 UNK        -0.4254 
     60 C         -81.0303   24.7967  -74.2478 C.2       2 UNK         0.5004 
     61 O         -79.8859   24.7375  -73.8035 O.2       2 UNK        -0.5226 
     62 CA        -82.2289   24.6755  -73.2921 C.3       2 UNK         0.0269 
     63 CB        -81.9025   23.7995  -72.0687 C.3       2 UNK        -0.1926 
     64 N         -82.6492   25.9980  -72.8274 N.am      2 UNK        -0.4687 
     65 C         -83.3238   26.8964  -73.5590 C.2       1 UNK         0.5165 
     66 O         -83.7119   26.6794  -74.7075 O.2       1 UNK        -0.5079 
     67 H67       -86.3061   27.6423  -71.8286 H         1 UNK         0.0900 
     68 H68       -86.4193   26.6537  -70.3821 H         1 UNK         0.0900 
     69 H69       -85.4890   26.0692  -71.7543 H         1 UNK         0.0900 
     70 H70       -82.8042   28.6548  -71.0190 H         1 UNK         0.2959 
     71 H71       -84.6594   28.5034  -73.2072 H         1 UNK         0.1079 
     72 H72       -82.7220   29.3784  -74.5473 H         1 UNK         0.0837 
     73 H73       -83.1646   30.3497  -73.1836 H         1 UNK         0.0837 
     74 H74       -80.5535   27.6798  -74.4670 H         1 UNK         0.0685 
     75 H75       -80.2562   29.2820  -75.0956 H         1 UNK         0.0685 
     76 H76       -78.9694   26.8711  -72.5094 H         1 UNK         0.1434 
     77 H77       -74.8722   27.9477  -73.1651 H         1 UNK         0.1329 
     78 H78       -77.9970   30.0396  -75.2273 H         1 UNK         0.1335 
     79 H79       -75.6448   30.1713  -75.9886 H         1 UNK         0.0680 
     80 H80       -74.3615   29.4060  -75.1001 H         1 UNK         0.0680 
     81 H81       -74.0377   31.6333  -71.9391 H         1 UNK         0.1032 
     82 H82       -73.9202   30.0131  -72.5585 H         1 UNK         0.1032 
     83 H83       -72.2606   32.4016  -73.5090 H         1 UNK         0.0461 
     84 H84       -70.1210   29.8015  -73.0533 H         1 UNK         0.3453 
     85 H85       -69.6708   30.2000  -71.4140 H         1 UNK         0.3453 
     86 H86       -72.3955   29.6733  -74.5637 H         1 UNK         0.2984 
     87 H87       -71.6061   30.0957  -77.2561 H         1 UNK         0.0554 
     88 H88       -69.3163   29.4333  -78.0351 H         1 UNK         0.0847 
     89 H89       -68.6259   30.0644  -76.5406 H         1 UNK         0.0847 
     90 H90       -69.4146   31.1486  -77.6762 H         1 UNK         0.0847 
     91 H91       -71.6592   27.9977  -76.5870 H         1 UNK         0.3141 
     92 H92       -69.5963   25.8950  -74.8282 H         1 UNK         0.0743 
     93 H93       -70.5520   26.6487  -72.6739 H         1 UNK         0.0784 
     94 H94       -72.1435   26.8297  -73.3948 H         1 UNK         0.0784 
     95 H95       -71.4217   25.2293  -73.2328 H         1 UNK         0.0784 
     96 H96       -72.3775   25.6529  -75.5914 H         1 UNK         0.3213 
     97 H97       -71.8954   25.5024  -79.0480 H         1 UNK         0.0855 
     98 H98       -72.6485   23.1343  -79.0917 H         1 UNK         0.0814 
     99 H99       -72.1731   22.9235  -77.4054 H         1 UNK         0.0814 
    100 H100      -70.9554   23.2158  -78.6391 H         1 UNK         0.0814 
    101 H101      -74.0748   24.5231  -77.5319 H         1 UNK         0.3105 
    102 H102      -75.3942   27.4341  -76.2017 H         1 UNK         0.0547 
    103 H103      -76.4943   26.0986  -78.7208 H         1 UNK         0.0837 
    104 H104      -77.4143   27.0691  -77.5680 H         1 UNK         0.0837 
    105 H105      -76.1568   27.8142  -78.5384 H         1 UNK         0.0837 
    106 H106      -76.6100   24.9080  -76.4677 H         1 UNK         0.3020 
    107 H107      -74.8626   22.9308  -74.6090 H         1 UNK         0.1245 
    108 H108      -74.7011   24.1945  -72.4419 H         1 UNK         0.0781 
    109 H109      -75.6284   22.7394  -72.4126 H         1 UNK         0.0781 
    110 H110      -76.8258   26.5643  -70.7199 H         1 UNK         0.0836 
    111 H111      -75.3515   26.2406  -71.5894 H         1 UNK         0.0836 
    112 H112      -77.7466   23.5978  -74.5090 H         1 UNK         0.3022 
    113 H113      -78.3818   21.6092  -77.3904 H         1 UNK         0.0747 
    114 H114      -78.3215   19.8487  -75.6079 H         1 UNK         0.0793 
    115 H115      -79.9646   20.3736  -75.9322 H         1 UNK         0.0793 
    116 H116      -79.1239   20.9417  -74.4883 H         1 UNK         0.0793 
    117 H117      -80.1927   22.8871  -75.6327 H         1 UNK         0.3047 
    118 H118      -79.7732   26.1665  -76.2872 H         1 UNK         0.0822 
    119 H119      -80.3993   25.9071  -78.6914 H         1 UNK         0.0807 
    120 H120      -81.7565   26.4833  -77.7411 H         1 UNK         0.0807 
    121 H121      -81.6869   24.7947  -78.2485 H         1 UNK         0.0807 
    122 H122      -82.2835   25.0757  -75.8048 H         1 UNK         0.2946 
    123 H123      -83.0552   24.2058  -73.8311 H         1 UNK         0.1144 
    124 H124      -82.7764   23.6681  -71.4305 H         1 UNK         0.0793 
    125 H125      -81.1055   24.2303  -71.4608 H         1 UNK         0.0793 
    126 H126      -81.5742   22.8061  -72.3774 H         1 UNK         0.0793 
    127 H127      -82.3457   26.2726  -71.9040 H         1 UNK         0.2896 
@<TRIPOS>BOND
     1    1    2 1    
     2    1   67 1    
     3    1   68 1    
     4    1   69 1    
     5    2    3 2    
     6    2    4 am   BACKBONE|DICT|INTERRES
     7    4    5 1    
     8    4   70 1    
     9    5    6 1    
    10    5   65 1    
    11    5   71 1    
    12    6    7 1    
    13    6   72 1    
    14    6   73 1    
    15    7    8 1    
    16    8    9 1    
    17    8   74 1    
    18    8   75 1    
    19    9   10 ar   
    20    9   14 ar   
    21   10   11 ar   
    22   10   76 1    
    23   11   12 ar   
    24   11   48 1    
    25   12   13 ar   
    26   12   77 1    
    27   13   14 ar   
    28   13   15 1    
    29   14   78 1    
    30   15   16 1    
    31   15   79 1    
    32   15   80 1    
    33   16   17 1    
    34   17   18 1    
    35   17   81 1    
    36   17   82 1    
    37   18   19 1    
    38   18   22 1    
    39   18   83 1    
    40   19   20 am   BACKBONE|DICT|INTERRES
    41   19   21 2    
    42   20   84 1    
    43   20   85 1    
    44   22   23 am   BACKBONE|DICT|INTERRES
    45   22   86 1    
    46   23   24 2    
    47   23   25 1    
    48   25   26 1    
    49   25   27 1    
    50   25   87 1    
    51   26   88 1    
    52   26   89 1    
    53   26   90 1    
    54   27   28 am   BACKBONE|DICT|INTERRES
    55   27   91 1    
    56   28   29 2    
    57   28   30 1    
    58   30   31 1    
    59   30   32 1    
    60   30   92 1    
    61   31   93 1    
    62   31   94 1    
    63   31   95 1    
    64   32   33 am   BACKBONE|DICT|INTERRES
    65   32   96 1    
    66   33   34 2    
    67   33   35 1    
    68   35   36 1    
    69   35   37 1    
    70   35   97 1    
    71   36   98 1    
    72   36   99 1    
    73   36  100 1    
    74   37   38 am   BACKBONE|DICT|INTERRES
    75   37  101 1    
    76   38   39 2    
    77   38   40 1    
    78   40   41 1    
    79   40   42 1    
    80   40  102 1    
    81   41  103 1    
    82   41  104 1    
    83   41  105 1    
    84   42   43 am   BACKBONE|DICT|INTERRES
    85   42  106 1    
    86   43   44 2    
    87   43   45 1    
    88   45   46 1    
    89   45   49 1    
    90   45  107 1    
    91   46   47 1    
    92   46  108 1    
    93   46  109 1    
    94   47   48 1    
    95   48  110 1    
    96   48  111 1    
    97   49   50 am   BACKBONE|DICT|INTERRES
    98   49  112 1    
    99   50   51 2    
   100   50   52 1    
   101   52   53 1    
   102   52   54 1    
   103   52  113 1    
   104   53  114 1    
   105   53  115 1    
   106   53  116 1    
   107   54   55 am   BACKBONE|DICT|INTERRES
   108   54  117 1    
   109   55   56 2    
   110   55   57 1    
   111   57   58 1    
   112   57   59 1    
   113   57  118 1    
   114   58  119 1    
   115   58  120 1    
   116   58  121 1    
   117   59   60 am   BACKBONE|DICT|INTERRES
   118   59  122 1    
   119   60   61 2    
   120   60   62 1    
   121   62   63 1    
   122   62   64 1    
   123   62  123 1    
   124   63  124 1    
   125   63  125 1    
   126   63  126 1    
   127   64   65 am   BACKBONE|DICT|INTERRES
   128   64  127 1    
   129   65   66 2    
@<TRIPOS>SUBSTRUCTURE
     1 UNK         1 GROUP             0       ****    0 ROOT    
