@<TRIPOS>MOLECULE
3R135
127   129    1
SMALL
USER_CHARGES


@<TRIPOS>ATOM
      1 CA        -85.2879   23.9798  -73.9581 C.3       0 UNK        -0.1998 
      2 C         -83.9932   24.7295  -73.6869 C.2       0 UNK         0.4909 
      3 O         -82.9258   24.2739  -74.1013 O.2       0 UNK        -0.5240 
      4 N         -84.0792   25.8917  -73.0209 N.am      1 UNK        -0.4739 
      5 CA        -82.9828   26.7782  -72.5820 C.3       1 UNK         0.0864 
      6 C6        -82.0399   26.0918  -71.5289 C.3       11 UNK        -0.0881 
      7 S7        -80.2333   26.0819  -71.8403 S.3       11 UNK        -0.2682 
      8 C8        -79.7131   27.5105  -70.8395 C.3       11 UNK         0.0289 
      9 C9        -78.4348   28.1288  -71.3825 C.ar      11 UNK        -0.0687 
     10 C10       -78.5074   29.1419  -72.3426 C.ar      11 UNK        -0.0823 
     11 C11       -77.3435   29.7238  -72.8538 C.ar      11 UNK        -0.0830 
     12 C12       -76.0995   29.2785  -72.3998 C.ar      11 UNK        -0.1021 
     13 C13       -76.0132   28.2615  -71.4444 C.ar      11 UNK        -0.0753 
     14 C14       -77.1844   27.6975  -70.9291 C.ar      11 UNK        -0.0933 
     15 C15       -74.6494   27.7631  -70.9970 C.3       11 UNK         0.0166 
     16 S16       -73.7997   29.0013  -69.9696 S.3       11 UNK        -0.2615 
     17 C17       -72.0511   28.6345  -70.3439 C.3       11 UNK        -0.0865 
     18 CA        -71.4447   29.6390  -71.3588 C.3       10 UNK         0.0862 
     19 C         -69.9120   29.4264  -71.4902 C.2       10 UNK         0.5551 
     20 N         -69.1209   30.1061  -70.6718 N.am      10 UNK        -0.7319 
     21 O         -69.4397   28.6230  -72.2925 O.2       10 UNK        -0.5018 
     22 N         -72.1225   29.5648  -72.6600 N.am      10 UNK        -0.4509 
     23 C         -72.0128   30.4596  -73.6464 C.2       10 UNK         0.4899 
     24 O         -71.3923   31.5196  -73.5472 O.2       10 UNK        -0.4839 
     25 CA        -72.7016   30.0830  -74.9730 C.3       9 UNK         0.0222 
     26 CB        -72.7174   31.2400  -75.9884 C.3       9 UNK        -0.1966 
     27 N         -72.0733   28.9108  -75.5894 N.am      9 UNK        -0.4218 
     28 C         -72.2658   27.6464  -75.1952 C.2       9 UNK         0.5020 
     29 O         -72.9993   27.3325  -74.2568 O.2       9 UNK        -0.5274 
     30 CA        -71.4780   26.5587  -75.9292 C.3       8 UNK         0.0270 
     31 CB        -70.3529   26.0074  -75.0321 C.3       8 UNK        -0.1976 
     32 N         -72.3950   25.4915  -76.3243 N.am      8 UNK        -0.4313 
     33 C         -72.1489   24.5834  -77.2777 C.2       8 UNK         0.5041 
     34 O         -71.0853   24.5099  -77.8954 O.2       8 UNK        -0.5577 
     35 CA        -73.2856   23.6114  -77.6322 C.3       7 UNK         0.0284 
     36 CB        -73.4994   22.5593  -76.5304 C.3       7 UNK        -0.1958 
     37 N         -74.5300   24.3347  -77.8965 N.am      7 UNK        -0.4454 
     38 C         -74.8145   24.9388  -79.0599 C.2       7 UNK         0.5089 
     39 O         -74.1051   24.8571  -80.0634 O.2       7 UNK        -0.5125 
     40 CA        -76.0999   25.7857  -79.1288 C.3       6 UNK         0.0408 
     41 CB        -77.2625   24.9590  -79.6997 C.3       6 UNK        -0.1791 
     42 N         -76.5000   26.3512  -77.8401 N.am      6 UNK        -0.4762 
     43 C         -75.8029   27.2636  -77.1473 C.2       6 UNK         0.5007 
     44 O         -74.7649   27.7869  -77.5524 O.2       6 UNK        -0.5032 
     45 CA        -76.3484   27.6153  -75.7486 C.3       5 UNK         0.0783 
     46 C46       -77.4098   28.7466  -75.8345 C.3       11 UNK        -0.0857 
     47 S47       -76.6665   30.3759  -75.4904 S.3       11 UNK        -0.2512 
     48 C48       -77.4378   30.8282  -73.9001 C.3       11 UNK         0.0225 
     49 N         -76.8515   26.4372  -75.0307 N.am      5 UNK        -0.4615 
     50 C         -76.1252   25.3537  -74.7175 C.2       4 UNK         0.5053 
     51 O         -74.9403   25.2128  -75.0098 O.2       4 UNK        -0.5105 
     52 CA        -76.8611   24.1968  -74.0264 C.3       4 UNK         0.0263 
     53 CB        -76.9265   24.4150  -72.5092 C.3       4 UNK        -0.1981 
     54 N         -78.2065   24.0094  -74.5732 N.am      4 UNK        -0.4224 
     55 C         -78.4385   23.5132  -75.7974 C.2       3 UNK         0.4895 
     56 O         -77.5561   23.0855  -76.5422 O.2       3 UNK        -0.5091 
     57 CA        -79.8929   23.5308  -76.2904 C.3       3 UNK         0.0250 
     58 CB        -80.6604   22.3092  -75.7607 C.3       3 UNK        -0.1996 
     59 N         -80.6154   24.7557  -75.9343 N.am      3 UNK        -0.4254 
     60 C         -80.3086   25.9843  -76.3891 C.2       2 UNK         0.5004 
     61 O         -79.3346   26.2125  -77.1061 O.2       2 UNK        -0.5226 
     62 CA        -81.2156   27.1610  -75.9876 C.3       2 UNK         0.0269 
     63 CB        -82.0856   27.6068  -77.1739 C.3       2 UNK        -0.1926 
     64 N         -82.0753   26.8047  -74.8639 N.am      2 UNK        -0.4687 
     65 C         -82.2595   27.5066  -73.7447 C.2       1 UNK         0.5165 
     66 O         -81.8766   28.6681  -73.5959 O.2       1 UNK        -0.5079 
     67 H67       -85.4378   23.8673  -75.0314 H         1 UNK         0.0900 
     68 H68       -85.2432   22.9857  -73.5143 H         1 UNK         0.0900 
     69 H69       -86.1539   24.4971  -73.5458 H         1 UNK         0.0900 
     70 H70       -85.0000   26.2174  -72.7591 H         1 UNK         0.2959 
     71 H71       -83.4954   27.5833  -72.0521 H         1 UNK         0.1079 
     72 H72       -82.2148   26.5404  -70.5498 H         1 UNK         0.0837 
     73 H73       -82.3223   25.0473  -71.3904 H         1 UNK         0.0837 
     74 H74       -80.5032   28.2634  -70.8331 H         1 UNK         0.0685 
     75 H75       -79.5773   27.1967  -69.8034 H         1 UNK         0.0685 
     76 H76       -79.4753   29.4729  -72.6943 H         1 UNK         0.1434 
     77 H77       -75.1950   29.7185  -72.7956 H         1 UNK         0.1329 
     78 H78       -77.1248   26.9106  -70.1898 H         1 UNK         0.1335 
     79 H79       -74.0576   27.5337  -71.8823 H         1 UNK         0.0680 
     80 H80       -74.7356   26.8307  -70.4369 H         1 UNK         0.0680 
     81 H81       -71.5053   28.6766  -69.3992 H         1 UNK         0.1032 
     82 H82       -71.9480   27.6078  -70.7011 H         1 UNK         0.1032 
     83 H83       -71.6067   30.6469  -70.9705 H         1 UNK         0.0461 
     84 H84       -68.1235   29.9705  -70.7299 H         1 UNK         0.3453 
     85 H85       -69.4988   30.7606  -70.0043 H         1 UNK         0.3453 
     86 H86       -72.5798   28.6867  -72.8838 H         1 UNK         0.2984 
     87 H87       -73.7404   29.8400  -74.7424 H         1 UNK         0.0554 
     88 H88       -73.2029   32.1209  -75.5664 H         1 UNK         0.0847 
     89 H89       -73.2722   30.9681  -76.8868 H         1 UNK         0.0847 
     90 H90       -71.7105   31.5331  -76.2883 H         1 UNK         0.0847 
     91 H91       -71.4249   29.0927  -76.3421 H         1 UNK         0.3141 
     92 H92       -71.0376   26.9910  -76.8303 H         1 UNK         0.0743 
     93 H93       -69.6934   26.8087  -74.6956 H         1 UNK         0.0784 
     94 H94       -70.7540   25.5210  -74.1419 H         1 UNK         0.0784 
     95 H95       -69.7359   25.2814  -75.5616 H         1 UNK         0.0784 
     96 H96       -73.2960   25.4905  -75.8424 H         1 UNK         0.3213 
     97 H97       -72.9956   23.0761  -78.5394 H         1 UNK         0.0855 
     98 H98       -73.7426   23.0081  -75.5680 H         1 UNK         0.0814 
     99 H99       -72.5973   21.9631  -76.3877 H         1 UNK         0.0814 
    100 H100      -74.3048   21.8722  -76.7905 H         1 UNK         0.0814 
    101 H101      -75.1497   24.4819  -77.1097 H         1 UNK         0.3105 
    102 H102      -75.9088   26.6181  -79.8090 H         1 UNK         0.0547 
    103 H103      -78.1628   25.5636  -79.8117 H         1 UNK         0.0837 
    104 H104      -77.0129   24.5623  -80.6847 H         1 UNK         0.0837 
    105 H105      -77.5073   24.1113  -79.0592 H         1 UNK         0.0837 
    106 H106      -77.3900   26.0394  -77.4598 H         1 UNK         0.3020 
    107 H107      -75.4953   27.9632  -75.1612 H         1 UNK         0.1245 
    108 H108      -78.2222   28.5732  -75.1293 H         1 UNK         0.0781 
    109 H109      -77.8998   28.7841  -76.8101 H         1 UNK         0.0781 
    110 H110      -78.4790   31.0983  -74.0840 H         1 UNK         0.0836 
    111 H111      -76.9533   31.7265  -73.5154 H         1 UNK         0.0836 
    112 H112      -77.8260   26.4502  -74.7742 H         1 UNK         0.3022 
    113 H113      -76.2882   23.2843  -74.2074 H         1 UNK         0.0747 
    114 H114      -77.4052   23.5758  -72.0046 H         1 UNK         0.0793 
    115 H115      -75.9260   24.5228  -72.0879 H         1 UNK         0.0793 
    116 H116      -77.4805   25.3174  -72.2610 H         1 UNK         0.0793 
    117 H117      -78.9868   24.3319  -74.0180 H         1 UNK         0.3047 
    118 H118      -79.8675   23.4697  -77.3807 H         1 UNK         0.0822 
    119 H119      -80.1525   21.3813  -76.0276 H         1 UNK         0.0807 
    120 H120      -81.6654   22.2607  -76.1806 H         1 UNK         0.0807 
    121 H121      -80.7551   22.3309  -74.6741 H         1 UNK         0.0807 
    122 H122      -81.4120   24.6278  -75.3196 H         1 UNK         0.2946 
    123 H123      -80.5591   27.9863  -75.7037 H         1 UNK         0.1144 
    124 H124      -82.6895   28.4767  -76.9153 H         1 UNK         0.0793 
    125 H125      -82.7605   26.8141  -77.4990 H         1 UNK         0.0793 
    126 H126      -81.4678   27.8837  -78.0294 H         1 UNK         0.0793 
    127 H127      -82.4427   25.8580  -74.8446 H         1 UNK         0.2896 
@<TRIPOS>BOND
     1    1    2 1    
     2    1   67 1    
     3    1   68 1    
     4    1   69 1    
     5    2    3 2    
     6    2    4 am   BACKBONE|DICT|INTERRES
     7    4    5 1    
     8    4   70 1    
     9    5    6 1    
    10    5   65 1    
    11    5   71 1    
    12    6    7 1    
    13    6   72 1    
    14    6   73 1    
    15    7    8 1    
    16    8    9 1    
    17    8   74 1    
    18    8   75 1    
    19    9   10 ar   
    20    9   14 ar   
    21   10   11 ar   
    22   10   76 1    
    23   11   12 ar   
    24   11   48 1    
    25   12   13 ar   
    26   12   77 1    
    27   13   14 ar   
    28   13   15 1    
    29   14   78 1    
    30   15   16 1    
    31   15   79 1    
    32   15   80 1    
    33   16   17 1    
    34   17   18 1    
    35   17   81 1    
    36   17   82 1    
    37   18   19 1    
    38   18   22 1    
    39   18   83 1    
    40   19   20 am   BACKBONE|DICT|INTERRES
    41   19   21 2    
    42   20   84 1    
    43   20   85 1    
    44   22   23 am   BACKBONE|DICT|INTERRES
    45   22   86 1    
    46   23   24 2    
    47   23   25 1    
    48   25   26 1    
    49   25   27 1    
    50   25   87 1    
    51   26   88 1    
    52   26   89 1    
    53   26   90 1    
    54   27   28 am   BACKBONE|DICT|INTERRES
    55   27   91 1    
    56   28   29 2    
    57   28   30 1    
    58   30   31 1    
    59   30   32 1    
    60   30   92 1    
    61   31   93 1    
    62   31   94 1    
    63   31   95 1    
    64   32   33 am   BACKBONE|DICT|INTERRES
    65   32   96 1    
    66   33   34 2    
    67   33   35 1    
    68   35   36 1    
    69   35   37 1    
    70   35   97 1    
    71   36   98 1    
    72   36   99 1    
    73   36  100 1    
    74   37   38 am   BACKBONE|DICT|INTERRES
    75   37  101 1    
    76   38   39 2    
    77   38   40 1    
    78   40   41 1    
    79   40   42 1    
    80   40  102 1    
    81   41  103 1    
    82   41  104 1    
    83   41  105 1    
    84   42   43 am   BACKBONE|DICT|INTERRES
    85   42  106 1    
    86   43   44 2    
    87   43   45 1    
    88   45   46 1    
    89   45   49 1    
    90   45  107 1    
    91   46   47 1    
    92   46  108 1    
    93   46  109 1    
    94   47   48 1    
    95   48  110 1    
    96   48  111 1    
    97   49   50 am   BACKBONE|DICT|INTERRES
    98   49  112 1    
    99   50   51 2    
   100   50   52 1    
   101   52   53 1    
   102   52   54 1    
   103   52  113 1    
   104   53  114 1    
   105   53  115 1    
   106   53  116 1    
   107   54   55 am   BACKBONE|DICT|INTERRES
   108   54  117 1    
   109   55   56 2    
   110   55   57 1    
   111   57   58 1    
   112   57   59 1    
   113   57  118 1    
   114   58  119 1    
   115   58  120 1    
   116   58  121 1    
   117   59   60 am   BACKBONE|DICT|INTERRES
   118   59  122 1    
   119   60   61 2    
   120   60   62 1    
   121   62   63 1    
   122   62   64 1    
   123   62  123 1    
   124   63  124 1    
   125   63  125 1    
   126   63  126 1    
   127   64   65 am   BACKBONE|DICT|INTERRES
   128   64  127 1    
   129   65   66 2    
@<TRIPOS>SUBSTRUCTURE
     1 UNK         1 GROUP             0       ****    0 ROOT    
