@<TRIPOS>MOLECULE
3R135
127   129    1
SMALL
USER_CHARGES


@<TRIPOS>ATOM
      1 CA        -85.3131   30.6840  -76.9374 C.3       0 UNK        -0.1998 
      2 C         -84.1996   29.6596  -76.7782 C.2       0 UNK         0.4909 
      3 O         -83.5599   29.2930  -77.7644 O.2       0 UNK        -0.5240 
      4 N         -83.9582   29.2010  -75.5433 N.am      1 UNK        -0.4739 
      5 CA        -82.9765   28.1623  -75.2132 C.3       1 UNK         0.0864 
      6 C6        -82.6637   28.1772  -73.6918 C.3       11 UNK        -0.0881 
      7 S7        -81.0111   27.5193  -73.2871 S.3       11 UNK        -0.2682 
      8 C8        -80.2493   28.9549  -72.4563 C.3       11 UNK         0.0289 
      9 C9        -78.8189   28.6814  -72.0033 C.ar      11 UNK        -0.0687 
     10 C10       -78.5414   27.6026  -71.1577 C.ar      11 UNK        -0.0823 
     11 C11       -77.2349   27.3551  -70.7304 C.ar      11 UNK        -0.0830 
     12 C12       -76.2084   28.2097  -71.1300 C.ar      11 UNK        -0.1021 
     13 C13       -76.4567   29.2811  -71.9921 C.ar      11 UNK        -0.0753 
     14 C14       -77.7705   29.5119  -72.4202 C.ar      11 UNK        -0.0933 
     15 C15       -75.3178   30.1498  -72.5288 C.3       11 UNK         0.0166 
     16 S16       -74.0822   30.6613  -71.2856 S.3       11 UNK        -0.2615 
     17 C17       -72.8375   29.3174  -71.3309 C.3       11 UNK        -0.0865 
     18 CA        -71.6759   29.5949  -72.3219 C.3       10 UNK         0.0862 
     19 C         -70.4095   28.7459  -71.9944 C.2       10 UNK         0.5551 
     20 N         -69.7752   28.0761  -72.9503 N.am      10 UNK        -0.7319 
     21 O         -69.9786   28.7054  -70.8446 O.2       10 UNK        -0.5018 
     22 N         -72.1308   29.4457  -73.7125 N.am      10 UNK        -0.4509 
     23 C         -71.7031   30.1856  -74.7412 C.2       10 UNK         0.4899 
     24 O         -70.9303   31.1386  -74.6262 O.2       10 UNK        -0.4839 
     25 CA        -72.2208   29.7738  -76.1333 C.3       9 UNK         0.0222 
     26 CB        -71.4775   30.4817  -77.2857 C.3       9 UNK        -0.1966 
     27 N         -72.2289   28.3197  -76.3448 N.am      9 UNK        -0.4218 
     28 C         -71.1840   27.4787  -76.2662 C.2       9 UNK         0.5020 
     29 O         -70.0480   27.8408  -75.9566 O.2       9 UNK        -0.5274 
     30 CA        -71.4219   25.9783  -76.5407 C.3       8 UNK         0.0270 
     31 CB        -71.0565   25.1444  -75.3006 C.3       8 UNK        -0.1976 
     32 N         -72.7912   25.6493  -76.9441 N.am      8 UNK        -0.4313 
     33 C         -73.3303   25.8918  -78.1465 C.2       8 UNK         0.5041 
     34 O         -72.6991   26.3418  -79.1030 O.2       8 UNK        -0.5577 
     35 CA        -74.8461   25.6511  -78.2818 C.3       7 UNK         0.0284 
     36 CB        -75.1416   24.1950  -78.6734 C.3       7 UNK        -0.1958 
     37 N         -75.5866   25.9973  -77.0626 N.am      7 UNK        -0.4454 
     38 C         -75.6367   27.2253  -76.5251 C.2       7 UNK         0.5089 
     39 O         -75.1085   28.2159  -77.0277 O.2       7 UNK        -0.5125 
     40 CA        -76.3393   27.3591  -75.1696 C.3       6 UNK         0.0408 
     41 CB        -77.8616   27.4288  -75.3517 C.3       6 UNK        -0.1791 
     42 N         -75.9784   26.2585  -74.2723 N.am      6 UNK        -0.4762 
     43 C         -74.7961   26.1486  -73.6459 C.2       6 UNK         0.5007 
     44 O         -73.9121   27.0058  -73.7126 O.2       6 UNK        -0.5032 
     45 CA        -74.5178   24.8412  -72.8680 C.3       5 UNK         0.0783 
     46 C46       -74.7901   24.9607  -71.3437 C.3       11 UNK        -0.0857 
     47 S47       -76.5325   24.6852  -70.8480 S.3       11 UNK        -0.2512 
     48 C48       -76.9240   26.1569  -69.8498 C.3       11 UNK         0.0225 
     49 N         -75.1872   23.6766  -73.4538 N.am      5 UNK        -0.4615 
     50 C         -74.9021   23.1404  -74.6459 C.2       4 UNK         0.5053 
     51 O         -73.9833   23.5305  -75.3638 O.2       4 UNK        -0.5105 
     52 CA        -75.8404   22.0243  -75.1442 C.3       4 UNK         0.0263 
     53 CB        -75.3599   20.6541  -74.6419 C.3       4 UNK        -0.1981 
     54 N         -77.2459   22.2259  -74.7624 N.am      4 UNK        -0.4224 
     55 C         -77.9729   23.3018  -75.0965 C.2       3 UNK         0.4895 
     56 O         -77.5292   24.2202  -75.7890 O.2       3 UNK        -0.5091 
     57 CA        -79.3944   23.3892  -74.5072 C.3       3 UNK         0.0250 
     58 CB        -79.3462   23.5209  -72.9749 C.3       3 UNK        -0.1996 
     59 N         -80.1388   24.5373  -75.0275 N.am      3 UNK        -0.4254 
     60 C         -80.6444   24.6396  -76.2616 C.2       2 UNK         0.5004 
     61 O         -80.6620   23.7212  -77.0835 O.2       2 UNK        -0.5226 
     62 CA        -81.2895   25.9871  -76.6023 C.3       2 UNK         0.0269 
     63 CB        -81.1225   26.3635  -78.0854 C.3       2 UNK        -0.1926 
     64 N         -82.7098   25.8872  -76.2755 N.am      2 UNK        -0.4687 
     65 C         -83.5079   26.7781  -75.6704 C.2       1 UNK         0.5165 
     66 O         -84.6885   26.5056  -75.4450 O.2       1 UNK        -0.5079 
     67 H67       -86.0801   30.3021  -77.6106 H         1 UNK         0.0900 
     68 H68       -85.7863   30.9237  -75.9854 H         1 UNK         0.0900 
     69 H69       -84.9165   31.6065  -77.3605 H         1 UNK         0.0900 
     70 H70       -84.5424   29.5102  -74.7796 H         1 UNK         0.2959 
     71 H71       -82.0748   28.4278  -75.7649 H         1 UNK         0.1079 
     72 H72       -82.7167   29.2001  -73.3152 H         1 UNK         0.0837 
     73 H73       -83.4142   27.6256  -73.1215 H         1 UNK         0.0837 
     74 H74       -80.2798   29.8095  -73.1341 H         1 UNK         0.0685 
     75 H75       -80.8476   29.2246  -71.5849 H         1 UNK         0.0685 
     76 H76       -79.3428   26.9474  -70.8443 H         1 UNK         0.1434 
     77 H77       -75.2110   28.0167  -70.7769 H         1 UNK         0.1329 
     78 H78       -77.9766   30.3347  -73.0908 H         1 UNK         0.1335 
     79 H79       -74.8164   29.6229  -73.3383 H         1 UNK         0.0680 
     80 H80       -75.7271   31.0592  -72.9711 H         1 UNK         0.0680 
     81 H81       -72.4635   29.2206  -70.3100 H         1 UNK         0.1032 
     82 H82       -73.2942   28.3592  -71.5683 H         1 UNK         0.1032 
     83 H83       -71.3624   30.6288  -72.1662 H         1 UNK         0.0461 
     84 H84       -68.9551   27.5434  -72.7091 H         1 UNK         0.3453 
     85 H85       -70.0679   28.1331  -73.9183 H         1 UNK         0.3453 
     86 H86       -72.7385   28.6517  -73.8914 H         1 UNK         0.2984 
     87 H87       -73.2634   30.0920  -76.1713 H         1 UNK         0.0554 
     88 H88       -71.5680   31.5655  -77.2036 H         1 UNK         0.0847 
     89 H89       -71.8867   30.1965  -78.2549 H         1 UNK         0.0847 
     90 H90       -70.4133   30.2432  -77.2875 H         1 UNK         0.0847 
     91 H91       -73.1354   27.9366  -76.5905 H         1 UNK         0.3141 
     92 H92       -70.7511   25.6911  -77.3529 H         1 UNK         0.0743 
     93 H93       -71.6602   25.4248  -74.4376 H         1 UNK         0.0784 
     94 H94       -71.1988   24.0785  -75.4801 H         1 UNK         0.0784 
     95 H95       -70.0109   25.2876  -75.0247 H         1 UNK         0.0784 
     96 H96       -73.3656   25.1752  -76.2524 H         1 UNK         0.3213 
     97 H97       -75.2122   26.2995  -79.0807 H         1 UNK         0.0855 
     98 H98       -74.7663   23.4912  -77.9311 H         1 UNK         0.0814 
     99 H99       -74.6680   23.9459  -79.6239 H         1 UNK         0.0814 
    100 H100      -76.2120   24.0227  -78.7883 H         1 UNK         0.0814 
    101 H101      -76.0993   25.2522  -76.5971 H         1 UNK         0.3105 
    102 H102      -76.0185   28.2935  -74.7111 H         1 UNK         0.0547 
    103 H103      -78.1570   28.3937  -75.7646 H         1 UNK         0.0837 
    104 H104      -78.2324   26.6625  -76.0309 H         1 UNK         0.0837 
    105 H105      -78.3731   27.3086  -74.4001 H         1 UNK         0.0837 
    106 H106      -76.6243   25.4820  -74.2313 H         1 UNK         0.3020 
    107 H107      -73.4448   24.6694  -72.9789 H         1 UNK         0.1245 
    108 H108      -74.4203   25.9083  -70.9523 H         1 UNK         0.0781 
    109 H109      -74.2028   24.2000  -70.8273 H         1 UNK         0.0781 
    110 H110      -76.0997   26.3773  -69.1697 H         1 UNK         0.0836 
    111 H111      -77.7844   25.9319  -69.2178 H         1 UNK         0.0836 
    112 H112      -75.9597   23.3043  -72.9206 H         1 UNK         0.3022 
    113 H113      -75.7950   22.0225  -76.2350 H         1 UNK         0.0747 
    114 H114      -75.9561   19.8448  -75.0641 H         1 UNK         0.0793 
    115 H115      -74.3234   20.4747  -74.9316 H         1 UNK         0.0793 
    116 H116      -75.4120   20.5794  -73.5549 H         1 UNK         0.0793 
    117 H117      -77.6692   21.5071  -74.1927 H         1 UNK         0.3047 
    118 H118      -79.9280   22.4740  -74.7724 H         1 UNK         0.0822 
    119 H119      -78.8092   22.6932  -72.5105 H         1 UNK         0.0807 
    120 H120      -80.3498   23.5261  -72.5489 H         1 UNK         0.0807 
    121 H121      -78.8547   24.4452  -72.6687 H         1 UNK         0.0807 
    122 H122      -80.2024   25.3371  -74.4130 H         1 UNK         0.2946 
    123 H123      -80.7805   26.7430  -76.0077 H         1 UNK         0.1144 
    124 H124      -81.5338   27.3517  -78.2919 H         1 UNK         0.0793 
    125 H125      -81.6214   25.6516  -78.7442 H         1 UNK         0.0793 
    126 H126      -80.0682   26.3850  -78.3650 H         1 UNK         0.0793 
    127 H127      -83.1165   24.9924  -76.5117 H         1 UNK         0.2896 
@<TRIPOS>BOND
     1    1    2 1    
     2    1   67 1    
     3    1   68 1    
     4    1   69 1    
     5    2    3 2    
     6    2    4 am   BACKBONE|DICT|INTERRES
     7    4    5 1    
     8    4   70 1    
     9    5    6 1    
    10    5   65 1    
    11    5   71 1    
    12    6    7 1    
    13    6   72 1    
    14    6   73 1    
    15    7    8 1    
    16    8    9 1    
    17    8   74 1    
    18    8   75 1    
    19    9   10 ar   
    20    9   14 ar   
    21   10   11 ar   
    22   10   76 1    
    23   11   12 ar   
    24   11   48 1    
    25   12   13 ar   
    26   12   77 1    
    27   13   14 ar   
    28   13   15 1    
    29   14   78 1    
    30   15   16 1    
    31   15   79 1    
    32   15   80 1    
    33   16   17 1    
    34   17   18 1    
    35   17   81 1    
    36   17   82 1    
    37   18   19 1    
    38   18   22 1    
    39   18   83 1    
    40   19   20 am   BACKBONE|DICT|INTERRES
    41   19   21 2    
    42   20   84 1    
    43   20   85 1    
    44   22   23 am   BACKBONE|DICT|INTERRES
    45   22   86 1    
    46   23   24 2    
    47   23   25 1    
    48   25   26 1    
    49   25   27 1    
    50   25   87 1    
    51   26   88 1    
    52   26   89 1    
    53   26   90 1    
    54   27   28 am   BACKBONE|DICT|INTERRES
    55   27   91 1    
    56   28   29 2    
    57   28   30 1    
    58   30   31 1    
    59   30   32 1    
    60   30   92 1    
    61   31   93 1    
    62   31   94 1    
    63   31   95 1    
    64   32   33 am   BACKBONE|DICT|INTERRES
    65   32   96 1    
    66   33   34 2    
    67   33   35 1    
    68   35   36 1    
    69   35   37 1    
    70   35   97 1    
    71   36   98 1    
    72   36   99 1    
    73   36  100 1    
    74   37   38 am   BACKBONE|DICT|INTERRES
    75   37  101 1    
    76   38   39 2    
    77   38   40 1    
    78   40   41 1    
    79   40   42 1    
    80   40  102 1    
    81   41  103 1    
    82   41  104 1    
    83   41  105 1    
    84   42   43 am   BACKBONE|DICT|INTERRES
    85   42  106 1    
    86   43   44 2    
    87   43   45 1    
    88   45   46 1    
    89   45   49 1    
    90   45  107 1    
    91   46   47 1    
    92   46  108 1    
    93   46  109 1    
    94   47   48 1    
    95   48  110 1    
    96   48  111 1    
    97   49   50 am   BACKBONE|DICT|INTERRES
    98   49  112 1    
    99   50   51 2    
   100   50   52 1    
   101   52   53 1    
   102   52   54 1    
   103   52  113 1    
   104   53  114 1    
   105   53  115 1    
   106   53  116 1    
   107   54   55 am   BACKBONE|DICT|INTERRES
   108   54  117 1    
   109   55   56 2    
   110   55   57 1    
   111   57   58 1    
   112   57   59 1    
   113   57  118 1    
   114   58  119 1    
   115   58  120 1    
   116   58  121 1    
   117   59   60 am   BACKBONE|DICT|INTERRES
   118   59  122 1    
   119   60   61 2    
   120   60   62 1    
   121   62   63 1    
   122   62   64 1    
   123   62  123 1    
   124   63  124 1    
   125   63  125 1    
   126   63  126 1    
   127   64   65 am   BACKBONE|DICT|INTERRES
   128   64  127 1    
   129   65   66 2    
@<TRIPOS>SUBSTRUCTURE
     1 UNK         1 GROUP             0       ****    0 ROOT    
