@<TRIPOS>MOLECULE
3R135
127   129    1
SMALL
USER_CHARGES


@<TRIPOS>ATOM
      1 CA        -85.0983   29.2158  -73.9531 C.3       0 UNK        -0.1998 
      2 C         -83.9173   28.4683  -74.5539 C.2       0 UNK         0.4909 
      3 O         -83.8725   28.2675  -75.7682 O.2       0 UNK        -0.5240 
      4 N         -82.9649   28.0525  -73.7143 N.am      1 UNK        -0.4739 
      5 CA        -81.7524   27.3323  -74.0994 C.3       1 UNK         0.0864 
      6 C6        -80.5964   28.2755  -74.5501 C.3       11 UNK        -0.0881 
      7 S7        -80.3406   29.7765  -73.5284 S.3       11 UNK        -0.2682 
      8 C8        -78.5388   30.0451  -73.6744 C.3       11 UNK         0.0289 
      9 C9        -77.7328   29.5152  -72.4901 C.ar      11 UNK        -0.0687 
     10 C10       -78.0167   28.2738  -71.9123 C.ar      11 UNK        -0.0823 
     11 C11       -77.2600   27.7926  -70.8411 C.ar      11 UNK        -0.0830 
     12 C12       -76.1894   28.5493  -70.3611 C.ar      11 UNK        -0.1021 
     13 C13       -75.8843   29.7871  -70.9313 C.ar      11 UNK        -0.0753 
     14 C14       -76.6697   30.2711  -71.9837 C.ar      11 UNK        -0.0933 
     15 C15       -74.7089   30.5941  -70.3984 C.3       11 UNK         0.0166 
     16 S16       -73.1751   30.2442  -71.3199 S.3       11 UNK        -0.2615 
     17 C17       -73.4451   31.2216  -72.8357 C.3       11 UNK        -0.0865 
     18 CA        -73.8126   30.3425  -74.0709 C.3       10 UNK         0.0862 
     19 C         -74.4794   31.1738  -75.2132 C.2       10 UNK         0.5551 
     20 N         -74.4151   30.7448  -76.4656 N.am      10 UNK        -0.7319 
     21 O         -75.0900   32.2110  -74.9655 O.2       10 UNK        -0.5018 
     22 N         -72.6989   29.4745  -74.5048 N.am      10 UNK        -0.4509 
     23 C         -71.5287   29.8994  -75.0017 C.2       10 UNK         0.4899 
     24 O         -71.2548   31.0905  -75.1575 O.2       10 UNK        -0.4839 
     25 CA        -70.4674   28.8629  -75.4241 C.3       9 UNK         0.0222 
     26 CB        -69.1848   29.0052  -74.5782 C.3       9 UNK        -0.1966 
     27 N         -70.9012   27.4609  -75.4925 N.am      9 UNK        -0.4218 
     28 C         -71.2176   26.6125  -74.5049 C.2       9 UNK         0.5020 
     29 O         -71.2630   26.9323  -73.3166 O.2       9 UNK        -0.5274 
     30 CA        -71.5187   25.1561  -74.9304 C.3       8 UNK         0.0270 
     31 CB        -71.9431   24.2649  -73.7480 C.3       8 UNK        -0.1976 
     32 N         -72.5394   25.0740  -75.9800 N.am      8 UNK        -0.4313 
     33 C         -72.3647   25.3908  -77.2705 C.2       8 UNK         0.5041 
     34 O         -71.2754   25.7137  -77.7474 O.2       8 UNK        -0.5577 
     35 CA        -73.6194   25.4366  -78.1594 C.3       7 UNK         0.0284 
     36 CB        -73.9071   24.0568  -78.7705 C.3       7 UNK        -0.1958 
     37 N         -74.8032   25.9346  -77.4496 N.am      7 UNK        -0.4454 
     38 C         -74.9042   27.1615  -76.9151 C.2       7 UNK         0.5089 
     39 O         -74.0292   28.0208  -77.0187 O.2       7 UNK        -0.5125 
     40 CA        -76.1720   27.4725  -76.0978 C.3       6 UNK         0.0408 
     41 CB        -77.3393   27.8378  -77.0275 C.3       6 UNK        -0.1791 
     42 N         -76.5527   26.3660  -75.2160 N.am      6 UNK        -0.4762 
     43 C         -75.8099   25.9218  -74.1891 C.2       6 UNK         0.5007 
     44 O         -74.7753   26.4712  -73.8132 O.2       6 UNK        -0.5032 
     45 CA        -76.2496   24.5934  -73.5365 C.3       5 UNK         0.0783 
     46 C46       -77.3042   24.7813  -72.4195 C.3       11 UNK        -0.0857 
     47 S47       -76.5499   25.1181  -70.7975 S.3       11 UNK        -0.2512 
     48 C48       -77.6052   26.4655  -70.1855 C.3       11 UNK         0.0225 
     49 N         -76.7332   23.6537  -74.5471 N.am      5 UNK        -0.4615 
     50 C         -75.9579   22.9762  -75.4007 C.2       4 UNK         0.5053 
     51 O         -74.7298   23.0438  -75.4059 O.2       4 UNK        -0.5105 
     52 CA        -76.6804   22.0962  -76.4375 C.3       4 UNK         0.0263 
     53 CB        -76.8853   20.6768  -75.8855 C.3       4 UNK        -0.1981 
     54 N         -77.9741   22.6507  -76.8512 N.am      4 UNK        -0.4224 
     55 C         -78.1138   23.7783  -77.5629 C.2       3 UNK         0.4895 
     56 O         -77.1654   24.4266  -78.0011 O.2       3 UNK        -0.5091 
     57 CA        -79.5444   24.3055  -77.7729 C.3       3 UNK         0.0250 
     58 CB        -80.1740   23.6699  -79.0223 C.3       3 UNK        -0.1996 
     59 N         -80.4322   24.1108  -76.6188 N.am      3 UNK        -0.4254 
     60 C         -80.2098   24.5977  -75.3900 C.2       2 UNK         0.5004 
     61 O         -79.2032   25.2359  -75.0824 O.2       2 UNK        -0.5226 
     62 CA        -81.2696   24.2802  -74.3224 C.3       2 UNK         0.0269 
     63 CB        -81.1600   22.8018  -73.9102 C.3       2 UNK        -0.1926 
     64 N         -81.1449   25.0967  -73.1065 N.am      2 UNK        -0.4687 
     65 C         -81.3619   26.4102  -72.9249 C.2       1 UNK         0.5165 
     66 O         -81.2789   26.9055  -71.8009 O.2       1 UNK        -0.5079 
     67 H67       -85.1707   30.2126  -74.3875 H         1 UNK         0.0900 
     68 H68       -85.0052   29.3234  -72.8726 H         1 UNK         0.0900 
     69 H69       -86.0258   28.6838  -74.1628 H         1 UNK         0.0900 
     70 H70       -83.0418   28.2263  -72.7201 H         1 UNK         0.2959 
     71 H71       -82.0107   26.7107  -74.9551 H         1 UNK         0.1079 
     72 H72       -79.6600   27.7207  -74.6100 H         1 UNK         0.0837 
     73 H73       -80.7967   28.6155  -75.5672 H         1 UNK         0.0837 
     74 H74       -78.1619   29.5969  -74.5935 H         1 UNK         0.0685 
     75 H75       -78.3781   31.1194  -73.7774 H         1 UNK         0.0685 
     76 H76       -78.8366   27.6841  -72.2902 H         1 UNK         0.1434 
     77 H77       -75.5914   28.1719  -69.5427 H         1 UNK         0.1329 
     78 H78       -76.4416   31.2321  -72.4230 H         1 UNK         0.1335 
     79 H79       -74.5422   30.3524  -69.3475 H         1 UNK         0.0680 
     80 H80       -74.9330   31.6614  -70.4257 H         1 UNK         0.0680 
     81 H81       -72.5488   31.8108  -73.0312 H         1 UNK         0.1032 
     82 H82       -74.2197   31.9599  -72.6278 H         1 UNK         0.1032 
     83 H83       -74.5948   29.6511  -73.7579 H         1 UNK         0.0461 
     84 H84       -74.0113   29.8356  -76.6764 H         1 UNK         0.3453 
     85 H85       -74.8457   31.2873  -77.1962 H         1 UNK         0.3453 
     86 H86       -72.8481   28.4799  -74.4018 H         1 UNK         0.2984 
     87 H87       -70.2042   29.1208  -76.4509 H         1 UNK         0.0554 
     88 H88       -68.4051   28.3237  -74.9182 H         1 UNK         0.0847 
     89 H89       -69.3706   28.8053  -73.5225 H         1 UNK         0.0847 
     90 H90       -68.7811   30.0162  -74.6469 H         1 UNK         0.0847 
     91 H91       -70.9373   27.0675  -76.4309 H         1 UNK         0.3141 
     92 H92       -70.5885   24.7465  -75.3297 H         1 UNK         0.0743 
     93 H93       -72.8544   24.6308  -73.2749 H         1 UNK         0.0784 
     94 H94       -72.1209   23.2379  -74.0675 H         1 UNK         0.0784 
     95 H95       -71.1674   24.2361  -72.9818 H         1 UNK         0.0784 
     96 H96       -73.4657   24.7899  -75.6828 H         1 UNK         0.3213 
     97 H97       -73.4157   26.1319  -78.9766 H         1 UNK         0.0855 
     98 H98       -74.0954   23.3059  -78.0042 H         1 UNK         0.0814 
     99 H99       -73.0585   23.7102  -79.3616 H         1 UNK         0.0814 
    100 H100      -74.7725   24.0868  -79.4329 H         1 UNK         0.0814 
    101 H101      -75.6100   25.3162  -77.4069 H         1 UNK         0.3105 
    102 H102      -75.9616   28.3366  -75.4650 H         1 UNK         0.0547 
    103 H103      -77.0959   28.7190  -77.6224 H         1 UNK         0.0837 
    104 H104      -77.5734   27.0333  -77.7238 H         1 UNK         0.0837 
    105 H105      -78.2445   28.0662  -76.4685 H         1 UNK         0.0837 
    106 H106      -77.4255   25.8851  -75.4174 H         1 UNK         0.3020 
    107 H107      -75.3559   24.1471  -73.0933 H         1 UNK         0.1245 
    108 H108      -78.0315   25.5484  -72.6849 H         1 UNK         0.0781 
    109 H109      -77.8864   23.8671  -72.2925 H         1 UNK         0.0781 
    110 H110      -78.6560   26.2155  -70.3432 H         1 UNK         0.0836 
    111 H111      -77.4750   26.5499  -69.1056 H         1 UNK         0.0836 
    112 H112      -77.7355   23.6128  -74.6646 H         1 UNK         0.3022 
    113 H113      -76.0419   22.0295  -77.3206 H         1 UNK         0.0747 
    114 H114      -77.3282   20.0199  -76.6343 H         1 UNK         0.0793 
    115 H115      -75.9332   20.2331  -75.5905 H         1 UNK         0.0793 
    116 H116      -77.5328   20.6720  -75.0076 H         1 UNK         0.0793 
    117 H117      -78.8047   22.1689  -76.5396 H         1 UNK         0.3047 
    118 H118      -79.4682   25.3815  -77.9430 H         1 UNK         0.0822 
    119 H119      -81.1434   24.1145  -79.2487 H         1 UNK         0.0807 
    120 H120      -80.3162   22.5950  -78.9032 H         1 UNK         0.0807 
    121 H121      -79.5400   23.8197  -79.8976 H         1 UNK         0.0807 
    122 H122      -81.2772   23.5839  -76.7896 H         1 UNK         0.2946 
    123 H123      -82.2598   24.4444  -74.7528 H         1 UNK         0.1144 
    124 H124      -81.3005   22.1359  -74.7627 H         1 UNK         0.0793 
    125 H125      -81.9217   22.5381  -73.1758 H         1 UNK         0.0793 
    126 H126      -80.1856   22.5736  -73.4757 H         1 UNK         0.0793 
    127 H127      -80.8732   24.5767  -72.2860 H         1 UNK         0.2896 
@<TRIPOS>BOND
     1    1    2 1    
     2    1   67 1    
     3    1   68 1    
     4    1   69 1    
     5    2    3 2    
     6    2    4 am   BACKBONE|DICT|INTERRES
     7    4    5 1    
     8    4   70 1    
     9    5    6 1    
    10    5   65 1    
    11    5   71 1    
    12    6    7 1    
    13    6   72 1    
    14    6   73 1    
    15    7    8 1    
    16    8    9 1    
    17    8   74 1    
    18    8   75 1    
    19    9   10 ar   
    20    9   14 ar   
    21   10   11 ar   
    22   10   76 1    
    23   11   12 ar   
    24   11   48 1    
    25   12   13 ar   
    26   12   77 1    
    27   13   14 ar   
    28   13   15 1    
    29   14   78 1    
    30   15   16 1    
    31   15   79 1    
    32   15   80 1    
    33   16   17 1    
    34   17   18 1    
    35   17   81 1    
    36   17   82 1    
    37   18   19 1    
    38   18   22 1    
    39   18   83 1    
    40   19   20 am   BACKBONE|DICT|INTERRES
    41   19   21 2    
    42   20   84 1    
    43   20   85 1    
    44   22   23 am   BACKBONE|DICT|INTERRES
    45   22   86 1    
    46   23   24 2    
    47   23   25 1    
    48   25   26 1    
    49   25   27 1    
    50   25   87 1    
    51   26   88 1    
    52   26   89 1    
    53   26   90 1    
    54   27   28 am   BACKBONE|DICT|INTERRES
    55   27   91 1    
    56   28   29 2    
    57   28   30 1    
    58   30   31 1    
    59   30   32 1    
    60   30   92 1    
    61   31   93 1    
    62   31   94 1    
    63   31   95 1    
    64   32   33 am   BACKBONE|DICT|INTERRES
    65   32   96 1    
    66   33   34 2    
    67   33   35 1    
    68   35   36 1    
    69   35   37 1    
    70   35   97 1    
    71   36   98 1    
    72   36   99 1    
    73   36  100 1    
    74   37   38 am   BACKBONE|DICT|INTERRES
    75   37  101 1    
    76   38   39 2    
    77   38   40 1    
    78   40   41 1    
    79   40   42 1    
    80   40  102 1    
    81   41  103 1    
    82   41  104 1    
    83   41  105 1    
    84   42   43 am   BACKBONE|DICT|INTERRES
    85   42  106 1    
    86   43   44 2    
    87   43   45 1    
    88   45   46 1    
    89   45   49 1    
    90   45  107 1    
    91   46   47 1    
    92   46  108 1    
    93   46  109 1    
    94   47   48 1    
    95   48  110 1    
    96   48  111 1    
    97   49   50 am   BACKBONE|DICT|INTERRES
    98   49  112 1    
    99   50   51 2    
   100   50   52 1    
   101   52   53 1    
   102   52   54 1    
   103   52  113 1    
   104   53  114 1    
   105   53  115 1    
   106   53  116 1    
   107   54   55 am   BACKBONE|DICT|INTERRES
   108   54  117 1    
   109   55   56 2    
   110   55   57 1    
   111   57   58 1    
   112   57   59 1    
   113   57  118 1    
   114   58  119 1    
   115   58  120 1    
   116   58  121 1    
   117   59   60 am   BACKBONE|DICT|INTERRES
   118   59  122 1    
   119   60   61 2    
   120   60   62 1    
   121   62   63 1    
   122   62   64 1    
   123   62  123 1    
   124   63  124 1    
   125   63  125 1    
   126   63  126 1    
   127   64   65 am   BACKBONE|DICT|INTERRES
   128   64  127 1    
   129   65   66 2    
@<TRIPOS>SUBSTRUCTURE
     1 UNK         1 GROUP             0       ****    0 ROOT    
