@<TRIPOS>MOLECULE
3R135
127   129    1
SMALL
USER_CHARGES


@<TRIPOS>ATOM
      1 CA        -78.5299   23.5210  -72.5819 C.3       0 UNK        -0.1998 
      2 C         -79.8441   24.2725  -72.4315 C.2       0 UNK         0.4909 
      3 O         -80.8862   23.6490  -72.2227 O.2       0 UNK        -0.5240 
      4 N         -79.8032   25.6083  -72.5208 N.am      1 UNK        -0.4739 
      5 CA        -80.9533   26.5060  -72.3708 C.3       1 UNK         0.0864 
      6 C6        -80.5243   27.9925  -72.3341 C.3       11 UNK        -0.0881 
      7 S7        -79.5434   28.3532  -70.8385 S.3       11 UNK        -0.2682 
      8 C8        -78.4748   29.7179  -71.3965 C.3       11 UNK         0.0289 
      9 C9        -77.3730   29.2606  -72.3438 C.ar      11 UNK        -0.0687 
     10 C10       -77.2829   29.8011  -73.6304 C.ar      11 UNK        -0.0823 
     11 C11       -76.2419   29.4288  -74.4856 C.ar      11 UNK        -0.0830 
     12 C12       -75.2963   28.4955  -74.0515 C.ar      11 UNK        -0.1021 
     13 C13       -75.3766   27.9433  -72.7700 C.ar      11 UNK        -0.0753 
     14 C14       -76.4149   28.3338  -71.9191 C.ar      11 UNK        -0.0933 
     15 C15       -74.3361   26.9338  -72.3028 C.3       11 UNK         0.0166 
     16 S16       -72.6346   27.5758  -72.4241 S.3       11 UNK        -0.2615 
     17 C17       -72.6545   28.9508  -71.2259 C.3       11 UNK        -0.0865 
     18 CA        -72.9863   30.3293  -71.8590 C.3       10 UNK         0.0862 
     19 C         -73.0031   31.4341  -70.7614 C.2       10 UNK         0.5551 
     20 N         -72.0975   32.4050  -70.7787 N.am      10 UNK        -0.7319 
     21 O         -73.8546   31.4071  -69.8762 O.2       10 UNK        -0.5018 
     22 N         -72.1455   30.6272  -73.0335 N.am      10 UNK        -0.4509 
     23 C         -72.4043   31.5800  -73.9358 C.2       10 UNK         0.4899 
     24 O         -73.4143   32.2838  -73.9192 O.2       10 UNK        -0.4839 
     25 CA        -71.3541   31.8183  -75.0342 C.3       9 UNK         0.0222 
     26 CB        -70.0640   32.4324  -74.4531 C.3       9 UNK        -0.1966 
     27 N         -71.0640   30.6572  -75.8858 N.am      9 UNK        -0.4218 
     28 C         -70.4742   29.4976  -75.5637 C.2       9 UNK         0.5020 
     29 O         -70.1040   29.1901  -74.4278 O.2       9 UNK        -0.5274 
     30 CA        -70.1699   28.5629  -76.7463 C.3       8 UNK         0.0270 
     31 CB        -68.7337   28.7906  -77.2472 C.3       8 UNK        -0.1976 
     32 N         -70.3351   27.1515  -76.3993 N.am      8 UNK        -0.4313 
     33 C         -71.5188   26.5399  -76.2845 C.2       8 UNK         0.5041 
     34 O         -72.6005   27.1136  -76.4368 O.2       8 UNK        -0.5577 
     35 CA        -71.4765   25.0348  -75.9673 C.3       7 UNK         0.0284 
     36 CB        -71.2057   24.7860  -74.4752 C.3       7 UNK        -0.1958 
     37 N         -72.7493   24.4108  -76.3188 N.am      7 UNK        -0.4454 
     38 C         -73.0617   23.8823  -77.5052 C.2       7 UNK         0.5089 
     39 O         -72.2522   23.7232  -78.4199 O.2       7 UNK        -0.5125 
     40 CA        -74.5348   23.4771  -77.7194 C.3       6 UNK         0.0408 
     41 CB        -74.9097   22.2376  -76.8829 C.3       6 UNK        -0.1791 
     42 N         -75.4923   24.5767  -77.5186 N.am      6 UNK        -0.4762 
     43 C         -75.7599   25.2559  -76.3915 C.2       6 UNK         0.5007 
     44 O         -75.2655   24.9971  -75.2933 O.2       6 UNK        -0.5032 
     45 CA        -76.7512   26.4270  -76.5189 C.3       5 UNK         0.0783 
     46 C46       -76.1022   27.6155  -77.2690 C.3       11 UNK        -0.0857 
     47 S47       -77.0873   29.1410  -77.1125 S.3       11 UNK        -0.2512 
     48 C48       -76.1245   30.0564  -75.8668 C.3       11 UNK         0.0225 
     49 N         -78.0240   26.0316  -77.1296 N.am      5 UNK        -0.4615 
     50 C         -78.8706   25.1273  -76.6243 C.2       4 UNK         0.5053 
     51 O         -78.6403   24.4691  -75.6099 O.2       4 UNK        -0.5105 
     52 CA        -80.2109   24.9834  -77.3636 C.3       4 UNK         0.0263 
     53 CB        -80.0351   24.4798  -78.8130 C.3       4 UNK        -0.1981 
     54 N         -81.1722   24.1799  -76.5991 N.am      4 UNK        -0.4224 
     55 C         -81.2293   22.8473  -76.4392 C.2       3 UNK         0.4895 
     56 O         -80.5145   22.0473  -77.0451 O.2       3 UNK        -0.5091 
     57 CA        -82.2600   22.2986  -75.4270 C.3       3 UNK         0.0250 
     58 CB        -81.6466   21.2033  -74.5357 C.3       3 UNK        -0.1996 
     59 N         -82.8356   23.3410  -74.5700 N.am      3 UNK        -0.4254 
     60 C         -83.8838   24.1118  -74.8980 C.2       2 UNK         0.5004 
     61 O         -84.5354   23.9682  -75.9324 O.2       2 UNK        -0.5226 
     62 CA        -84.2507   25.2617  -73.9401 C.3       2 UNK         0.0269 
     63 CB        -85.4664   24.8777  -73.0809 C.3       2 UNK        -0.1926 
     64 N         -83.1538   25.6784  -73.0598 N.am      2 UNK        -0.4687 
     65 C         -82.0068   26.2427  -73.4652 C.2       1 UNK         0.5165 
     66 O         -81.7555   26.5122  -74.6419 O.2       1 UNK        -0.5079 
     67 H67       -78.2847   23.0003  -71.6570 H         1 UNK         0.0900 
     68 H68       -77.7056   24.1906  -72.8288 H         1 UNK         0.0900 
     69 H69       -78.6105   22.7837  -73.3802 H         1 UNK         0.0900 
     70 H70       -78.9228   26.0645  -72.7110 H         1 UNK         0.2959 
     71 H71       -81.4128   26.2739  -71.4072 H         1 UNK         0.1079 
     72 H72       -79.9530   28.2491  -73.2286 H         1 UNK         0.0837 
     73 H73       -81.3962   28.6496  -72.3253 H         1 UNK         0.0837 
     74 H74       -78.0117   30.1768  -70.5219 H         1 UNK         0.0685 
     75 H75       -79.0942   30.4906  -71.8547 H         1 UNK         0.0685 
     76 H76       -78.0129   30.5263  -73.9631 H         1 UNK         0.1434 
     77 H77       -74.4817   28.2052  -74.7015 H         1 UNK         0.1329 
     78 H78       -76.4788   27.9224  -70.9210 H         1 UNK         0.1335 
     79 H79       -74.5261   26.6188  -71.2757 H         1 UNK         0.0680 
     80 H80       -74.4159   26.0381  -72.9194 H         1 UNK         0.0680 
     81 H81       -73.3650   28.7134  -70.4316 H         1 UNK         0.1032 
     82 H82       -71.6732   28.9853  -70.7493 H         1 UNK         0.1032 
     83 H83       -74.0128   30.2814  -72.2231 H         1 UNK         0.0461 
     84 H84       -72.1188   33.1154  -70.0642 H         1 UNK         0.3453 
     85 H85       -71.3940   32.4305  -71.4985 H         1 UNK         0.3453 
     86 H86       -71.3272   30.0422  -73.1778 H         1 UNK         0.2984 
     87 H87       -71.7806   32.5633  -75.7081 H         1 UNK         0.0554 
     88 H88       -69.3642   32.7028  -75.2438 H         1 UNK         0.0847 
     89 H89       -69.5511   31.7503  -73.7744 H         1 UNK         0.0847 
     90 H90       -70.2839   33.3421  -73.8929 H         1 UNK         0.0847 
     91 H91       -71.3353   30.7760  -76.8524 H         1 UNK         0.3141 
     92 H92       -70.8565   28.7935  -77.5643 H         1 UNK         0.0743 
     93 H93       -68.5831   29.8293  -77.5453 H         1 UNK         0.0784 
     94 H94       -67.9964   28.5644  -76.4756 H         1 UNK         0.0784 
     95 H95       -68.5124   28.1710  -78.1166 H         1 UNK         0.0784 
     96 H96       -69.4914   26.6311  -76.2072 H         1 UNK         0.3213 
     97 H97       -70.6714   24.5821  -76.5504 H         1 UNK         0.0855 
     98 H98       -72.0361   25.1253  -73.8568 H         1 UNK         0.0814 
     99 H99       -70.3100   25.3089  -74.1374 H         1 UNK         0.0814 
    100 H100      -71.0572   23.7250  -74.2746 H         1 UNK         0.0814 
    101 H101      -73.5304   24.6004  -75.6937 H         1 UNK         0.3105 
    102 H102      -74.6315   23.1958  -78.7693 H         1 UNK         0.0547 
    103 H103      -74.8357   22.4237  -75.8113 H         1 UNK         0.0837 
    104 H104      -75.9283   21.9121  -77.0941 H         1 UNK         0.0837 
    105 H105      -74.2478   21.4014  -77.1112 H         1 UNK         0.0837 
    106 H106      -75.9620   24.8852  -78.3586 H         1 UNK         0.3020 
    107 H107      -76.9771   26.7457  -75.4987 H         1 UNK         0.1245 
    108 H108      -75.9914   27.3876  -78.3305 H         1 UNK         0.0781 
    109 H109      -75.0922   27.8086  -76.9063 H         1 UNK         0.0781 
    110 H110      -76.4820   31.0867  -75.8335 H         1 UNK         0.0836 
    111 H111      -75.0784   30.1135  -76.1729 H         1 UNK         0.0836 
    112 H112      -78.2982   26.5517  -77.9501 H         1 UNK         0.3022 
    113 H113      -80.6498   25.9814  -77.4089 H         1 UNK         0.0747 
    114 H114      -80.9978   24.2916  -79.2881 H         1 UNK         0.0793 
    115 H115      -79.5146   25.2171  -79.4248 H         1 UNK         0.0793 
    116 H116      -79.4518   23.5596  -78.8581 H         1 UNK         0.0793 
    117 H117      -81.7654   24.7327  -75.9930 H         1 UNK         0.3047 
    118 H118      -83.0605   21.8393  -76.0109 H         1 UNK         0.0822 
    119 H119      -81.3103   20.3540  -75.1318 H         1 UNK         0.0807 
    120 H120      -82.3715   20.8234  -73.8156 H         1 UNK         0.0807 
    121 H121      -80.7837   21.5719  -73.9811 H         1 UNK         0.0807 
    122 H122      -82.3384   23.5335  -73.7051 H         1 UNK         0.2946 
    123 H123      -84.5243   26.1183  -74.5606 H         1 UNK         0.1144 
    124 H124      -86.3124   24.5905  -73.7072 H         1 UNK         0.0793 
    125 H125      -85.7947   25.7120  -72.4608 H         1 UNK         0.0793 
    126 H126      -85.2466   24.0350  -72.4241 H         1 UNK         0.0793 
    127 H127      -83.2614   25.4569  -72.0797 H         1 UNK         0.2896 
@<TRIPOS>BOND
     1    1    2 1    
     2    1   67 1    
     3    1   68 1    
     4    1   69 1    
     5    2    3 2    
     6    2    4 am   BACKBONE|DICT|INTERRES
     7    4    5 1    
     8    4   70 1    
     9    5    6 1    
    10    5   65 1    
    11    5   71 1    
    12    6    7 1    
    13    6   72 1    
    14    6   73 1    
    15    7    8 1    
    16    8    9 1    
    17    8   74 1    
    18    8   75 1    
    19    9   10 ar   
    20    9   14 ar   
    21   10   11 ar   
    22   10   76 1    
    23   11   12 ar   
    24   11   48 1    
    25   12   13 ar   
    26   12   77 1    
    27   13   14 ar   
    28   13   15 1    
    29   14   78 1    
    30   15   16 1    
    31   15   79 1    
    32   15   80 1    
    33   16   17 1    
    34   17   18 1    
    35   17   81 1    
    36   17   82 1    
    37   18   19 1    
    38   18   22 1    
    39   18   83 1    
    40   19   20 am   BACKBONE|DICT|INTERRES
    41   19   21 2    
    42   20   84 1    
    43   20   85 1    
    44   22   23 am   BACKBONE|DICT|INTERRES
    45   22   86 1    
    46   23   24 2    
    47   23   25 1    
    48   25   26 1    
    49   25   27 1    
    50   25   87 1    
    51   26   88 1    
    52   26   89 1    
    53   26   90 1    
    54   27   28 am   BACKBONE|DICT|INTERRES
    55   27   91 1    
    56   28   29 2    
    57   28   30 1    
    58   30   31 1    
    59   30   32 1    
    60   30   92 1    
    61   31   93 1    
    62   31   94 1    
    63   31   95 1    
    64   32   33 am   BACKBONE|DICT|INTERRES
    65   32   96 1    
    66   33   34 2    
    67   33   35 1    
    68   35   36 1    
    69   35   37 1    
    70   35   97 1    
    71   36   98 1    
    72   36   99 1    
    73   36  100 1    
    74   37   38 am   BACKBONE|DICT|INTERRES
    75   37  101 1    
    76   38   39 2    
    77   38   40 1    
    78   40   41 1    
    79   40   42 1    
    80   40  102 1    
    81   41  103 1    
    82   41  104 1    
    83   41  105 1    
    84   42   43 am   BACKBONE|DICT|INTERRES
    85   42  106 1    
    86   43   44 2    
    87   43   45 1    
    88   45   46 1    
    89   45   49 1    
    90   45  107 1    
    91   46   47 1    
    92   46  108 1    
    93   46  109 1    
    94   47   48 1    
    95   48  110 1    
    96   48  111 1    
    97   49   50 am   BACKBONE|DICT|INTERRES
    98   49  112 1    
    99   50   51 2    
   100   50   52 1    
   101   52   53 1    
   102   52   54 1    
   103   52  113 1    
   104   53  114 1    
   105   53  115 1    
   106   53  116 1    
   107   54   55 am   BACKBONE|DICT|INTERRES
   108   54  117 1    
   109   55   56 2    
   110   55   57 1    
   111   57   58 1    
   112   57   59 1    
   113   57  118 1    
   114   58  119 1    
   115   58  120 1    
   116   58  121 1    
   117   59   60 am   BACKBONE|DICT|INTERRES
   118   59  122 1    
   119   60   61 2    
   120   60   62 1    
   121   62   63 1    
   122   62   64 1    
   123   62  123 1    
   124   63  124 1    
   125   63  125 1    
   126   63  126 1    
   127   64   65 am   BACKBONE|DICT|INTERRES
   128   64  127 1    
   129   65   66 2    
@<TRIPOS>SUBSTRUCTURE
     1 UNK         1 GROUP             0       ****    0 ROOT    
