@<TRIPOS>MOLECULE
3R135
127   129    1
SMALL
USER_CHARGES


@<TRIPOS>ATOM
      1 CA        -81.9268   25.1309  -71.8162 C.3       0 UNK        -0.1998 
      2 C         -81.8753   25.9204  -73.1151 C.2       0 UNK         0.4909 
      3 O         -82.6189   25.6141  -74.0481 O.2       0 UNK        -0.5240 
      4 N         -81.0038   26.9359  -73.1856 N.am      1 UNK        -0.4739 
      5 CA        -80.7964   27.7880  -74.3613 C.3       1 UNK         0.0864 
      6 C6        -79.8014   28.9389  -74.0890 C.3       11 UNK        -0.0881 
      7 S7        -80.3755   30.0525  -72.7628 S.3       11 UNK        -0.2682 
      8 C8        -78.7964   30.6555  -72.0686 C.3       11 UNK         0.0289 
      9 C9        -77.8784   29.5454  -71.5627 C.ar      11 UNK        -0.0687 
     10 C10       -78.3864   28.4687  -70.8289 C.ar      11 UNK        -0.0823 
     11 C11       -77.5471   27.4342  -70.4095 C.ar      11 UNK        -0.0830 
     12 C12       -76.1760   27.5153  -70.6675 C.ar      11 UNK        -0.1021 
     13 C13       -75.6502   28.5881  -71.3923 C.ar      11 UNK        -0.0753 
     14 C14       -76.5099   29.5935  -71.8461 C.ar      11 UNK        -0.0933 
     15 C15       -74.1670   28.6125  -71.7355 C.3       11 UNK         0.0166 
     16 S16       -73.2246   29.8389  -70.7692 S.3       11 UNK        -0.2615 
     17 C17       -73.5058   31.4348  -71.6281 C.3       11 UNK        -0.0865 
     18 CA        -73.3625   31.4192  -73.1786 C.3       10 UNK         0.0862 
     19 C         -73.5891   32.8325  -73.7880 C.2       10 UNK         0.5551 
     20 N         -72.7153   33.3318  -74.6537 N.am      10 UNK        -0.7319 
     21 O         -74.5846   33.4828  -73.4798 O.2       10 UNK        -0.5018 
     22 N         -72.1048   30.7815  -73.6093 N.am      10 UNK        -0.4509 
     23 C         -72.0133   29.8541  -74.5688 C.2       10 UNK         0.4899 
     24 O         -72.9773   29.4398  -75.2166 O.2       10 UNK        -0.4839 
     25 CA        -70.6106   29.2604  -74.7993 C.3       9 UNK         0.0222 
     26 CB        -70.1828   28.4061  -73.5925 C.3       9 UNK        -0.1966 
     27 N         -70.5705   28.4184  -75.9945 N.am      9 UNK        -0.4218 
     28 C         -70.6393   28.8418  -77.2610 C.2       9 UNK         0.5020 
     29 O         -70.5612   30.0262  -77.5917 O.2       9 UNK        -0.5274 
     30 CA        -70.8623   27.7696  -78.3463 C.3       8 UNK         0.0270 
     31 CB        -69.5285   27.1405  -78.7957 C.3       8 UNK        -0.1976 
     32 N         -71.8604   26.7450  -77.9902 N.am      8 UNK        -0.4313 
     33 C         -71.7955   25.7935  -77.0478 C.2       8 UNK         0.5041 
     34 O         -70.8304   25.6327  -76.2976 O.2       8 UNK        -0.5577 
     35 CA        -73.0574   24.9369  -76.8585 C.3       7 UNK         0.0284 
     36 CB        -72.7462   23.5662  -76.2311 C.3       7 UNK        -0.1958 
     37 N         -74.0052   25.6453  -76.0013 N.am      7 UNK        -0.4454 
     38 C         -74.8074   26.6420  -76.3916 C.2       7 UNK         0.5089 
     39 O         -74.8925   27.0214  -77.5619 O.2       7 UNK        -0.5125 
     40 CA        -75.6644   27.2954  -75.2900 C.3       6 UNK         0.0408 
     41 CB        -76.5100   28.4707  -75.8109 C.3       6 UNK        -0.1791 
     42 N         -76.5283   26.3135  -74.6269 N.am      6 UNK        -0.4762 
     43 C         -76.1277   25.4714  -73.6614 C.2       6 UNK         0.5007 
     44 O         -74.9905   25.4786  -73.1869 O.2       6 UNK        -0.5032 
     45 CA        -77.1214   24.3753  -73.2350 C.3       5 UNK         0.0783 
     46 C46       -78.2151   24.8755  -72.2546 C.3       11 UNK        -0.0857 
     47 S47       -77.7057   24.6412  -70.5135 S.3       11 UNK        -0.2512 
     48 C48       -78.1342   26.2204  -69.7027 C.3       11 UNK         0.0225 
     49 N         -77.6812   23.7172  -74.4200 N.am      5 UNK        -0.4615 
     50 C         -77.0594   22.7270  -75.0769 C.2       4 UNK         0.5053 
     51 O         -75.9672   22.2757  -74.7293 O.2       4 UNK        -0.5105 
     52 CA        -77.7314   22.1384  -76.3350 C.3       4 UNK         0.0263 
     53 CB        -77.5732   20.6046  -76.4081 C.3       4 UNK        -0.1981 
     54 N         -79.1344   22.5164  -76.5401 N.am      4 UNK        -0.4224 
     55 C         -80.1991   22.2579  -75.7676 C.2       3 UNK         0.4895 
     56 O         -80.1373   21.6735  -74.6850 O.2       3 UNK        -0.5091 
     57 CA        -81.5581   22.7602  -76.3028 C.3       3 UNK         0.0250 
     58 CB        -82.7165   22.4923  -75.3239 C.3       3 UNK        -0.1996 
     59 N         -81.5280   24.1889  -76.6420 N.am      3 UNK        -0.4254 
     60 C         -80.9499   24.7092  -77.7372 C.2       2 UNK         0.5004 
     61 O         -80.4216   24.0174  -78.6090 O.2       2 UNK        -0.5226 
     62 CA        -80.9016   26.2407  -77.8867 C.3       2 UNK         0.0269 
     63 CB        -81.9193   26.7089  -78.9397 C.3       2 UNK        -0.1926 
     64 N         -81.1256   26.9817  -76.6439 N.am      2 UNK        -0.4687 
     65 C         -80.3296   26.9512  -75.5671 C.2       1 UNK         0.5165 
     66 O         -79.2903   26.2881  -75.4880 O.2       1 UNK        -0.5079 
     67 H67       -81.7020   24.0817  -72.0068 H         1 UNK         0.0900 
     68 H68       -82.9238   25.1917  -71.3809 H         1 UNK         0.0900 
     69 H69       -81.2125   25.5034  -71.0825 H         1 UNK         0.0900 
     70 H70       -80.4297   27.1596  -72.3876 H         1 UNK         0.2959 
     71 H71       -81.7636   28.2338  -74.6044 H         1 UNK         0.1079 
     72 H72       -79.6450   29.5405  -74.9868 H         1 UNK         0.0837 
     73 H73       -78.8303   28.5218  -73.8225 H         1 UNK         0.0837 
     74 H74       -79.0128   31.3329  -71.2418 H         1 UNK         0.0685 
     75 H75       -78.2931   31.2503  -72.8326 H         1 UNK         0.0685 
     76 H76       -79.4438   28.4252  -70.6080 H         1 UNK         0.1434 
     77 H77       -75.5242   26.7164  -70.3409 H         1 UNK         0.1329 
     78 H78       -76.1173   30.4144  -72.4266 H         1 UNK         0.1335 
     79 H79       -74.0372   28.7709  -72.8014 H         1 UNK         0.0680 
     80 H80       -73.7284   27.6323  -71.5420 H         1 UNK         0.0680 
     81 H81       -72.8035   32.1538  -71.2025 H         1 UNK         0.1032 
     82 H82       -74.4957   31.7950  -71.3427 H         1 UNK         0.1032 
     83 H83       -74.1997   30.8434  -73.5714 H         1 UNK         0.0461 
     84 H84       -72.8750   34.2462  -75.0466 H         1 UNK         0.3453 
     85 H85       -71.9076   32.7967  -74.9294 H         1 UNK         0.3453 
     86 H86       -71.2712   31.0714  -73.1186 H         1 UNK         0.2984 
     87 H87       -69.9022   30.0813  -74.9270 H         1 UNK         0.0554 
     88 H88       -69.1909   27.9786  -73.7407 H         1 UNK         0.0847 
     89 H89       -70.8780   27.5837  -73.4163 H         1 UNK         0.0847 
     90 H90       -70.1427   28.9981  -72.6773 H         1 UNK         0.0847 
     91 H91       -70.6440   27.4124  -75.8543 H         1 UNK         0.3141 
     92 H92       -71.2804   28.2900  -79.2095 H         1 UNK         0.0743 
     93 H93       -69.0264   26.6168  -77.9817 H         1 UNK         0.0784 
     94 H94       -69.6792   26.4306  -79.6089 H         1 UNK         0.0784 
     95 H95       -68.8416   27.9068  -79.1572 H         1 UNK         0.0784 
     96 H96       -72.7550   26.8491  -78.4557 H         1 UNK         0.3213 
     97 H97       -73.5101   24.7633  -77.8374 H         1 UNK         0.0855 
     98 H98       -72.3336   23.6624  -75.2258 H         1 UNK         0.0814 
     99 H99       -72.0188   23.0189  -76.8318 H         1 UNK         0.0814 
    100 H100      -73.6424   22.9490  -76.1652 H         1 UNK         0.0814 
    101 H101      -74.0015   25.4106  -75.0142 H         1 UNK         0.3105 
    102 H102      -74.9682   27.7031  -74.5578 H         1 UNK         0.0547 
    103 H103      -75.8927   29.1782  -76.3665 H         1 UNK         0.0837 
    104 H104      -77.3072   28.1362  -76.4754 H         1 UNK         0.0837 
    105 H105      -76.9547   29.0275  -74.9885 H         1 UNK         0.0837 
    106 H106      -77.4738   26.2234  -74.9927 H         1 UNK         0.3020 
    107 H107      -76.5305   23.6233  -72.7056 H         1 UNK         0.1245 
    108 H108      -79.1294   24.2959  -72.3877 H         1 UNK         0.0781 
    109 H109      -78.4890   25.9121  -72.4525 H         1 UNK         0.0781 
    110 H110      -77.7684   26.1992  -68.6754 H         1 UNK         0.0836 
    111 H111      -79.2207   26.2936  -69.6384 H         1 UNK         0.0836 
    112 H112      -78.5537   24.0781  -74.7802 H         1 UNK         0.3022 
    113 H113      -77.1872   22.5631  -77.1798 H         1 UNK         0.0747 
    114 H114      -78.0176   20.2025  -77.3186 H         1 UNK         0.0793 
    115 H115      -76.5214   20.3155  -76.4108 H         1 UNK         0.0793 
    116 H116      -78.0435   20.1097  -75.5578 H         1 UNK         0.0793 
    117 H117      -79.3279   23.0222  -77.4017 H         1 UNK         0.3047 
    118 H118      -81.7665   22.1956  -77.2143 H         1 UNK         0.0822 
    119 H119      -82.8302   21.4235  -75.1384 H         1 UNK         0.0807 
    120 H120      -83.6653   22.8546  -75.7198 H         1 UNK         0.0807 
    121 H121      -82.5503   22.9719  -74.3592 H         1 UNK         0.0807 
    122 H122      -81.9126   24.8216  -75.9485 H         1 UNK         0.2946 
    123 H123      -79.8991   26.4897  -78.2426 H         1 UNK         0.1144 
    124 H124      -81.7600   26.1999  -79.8915 H         1 UNK         0.0793 
    125 H125      -81.8313   27.7788  -79.1299 H         1 UNK         0.0793 
    126 H126      -82.9447   26.5045  -78.6289 H         1 UNK         0.0793 
    127 H127      -81.9717   27.5322  -76.6034 H         1 UNK         0.2896 
@<TRIPOS>BOND
     1    1    2 1    
     2    1   67 1    
     3    1   68 1    
     4    1   69 1    
     5    2    3 2    
     6    2    4 am   BACKBONE|DICT|INTERRES
     7    4    5 1    
     8    4   70 1    
     9    5    6 1    
    10    5   65 1    
    11    5   71 1    
    12    6    7 1    
    13    6   72 1    
    14    6   73 1    
    15    7    8 1    
    16    8    9 1    
    17    8   74 1    
    18    8   75 1    
    19    9   10 ar   
    20    9   14 ar   
    21   10   11 ar   
    22   10   76 1    
    23   11   12 ar   
    24   11   48 1    
    25   12   13 ar   
    26   12   77 1    
    27   13   14 ar   
    28   13   15 1    
    29   14   78 1    
    30   15   16 1    
    31   15   79 1    
    32   15   80 1    
    33   16   17 1    
    34   17   18 1    
    35   17   81 1    
    36   17   82 1    
    37   18   19 1    
    38   18   22 1    
    39   18   83 1    
    40   19   20 am   BACKBONE|DICT|INTERRES
    41   19   21 2    
    42   20   84 1    
    43   20   85 1    
    44   22   23 am   BACKBONE|DICT|INTERRES
    45   22   86 1    
    46   23   24 2    
    47   23   25 1    
    48   25   26 1    
    49   25   27 1    
    50   25   87 1    
    51   26   88 1    
    52   26   89 1    
    53   26   90 1    
    54   27   28 am   BACKBONE|DICT|INTERRES
    55   27   91 1    
    56   28   29 2    
    57   28   30 1    
    58   30   31 1    
    59   30   32 1    
    60   30   92 1    
    61   31   93 1    
    62   31   94 1    
    63   31   95 1    
    64   32   33 am   BACKBONE|DICT|INTERRES
    65   32   96 1    
    66   33   34 2    
    67   33   35 1    
    68   35   36 1    
    69   35   37 1    
    70   35   97 1    
    71   36   98 1    
    72   36   99 1    
    73   36  100 1    
    74   37   38 am   BACKBONE|DICT|INTERRES
    75   37  101 1    
    76   38   39 2    
    77   38   40 1    
    78   40   41 1    
    79   40   42 1    
    80   40  102 1    
    81   41  103 1    
    82   41  104 1    
    83   41  105 1    
    84   42   43 am   BACKBONE|DICT|INTERRES
    85   42  106 1    
    86   43   44 2    
    87   43   45 1    
    88   45   46 1    
    89   45   49 1    
    90   45  107 1    
    91   46   47 1    
    92   46  108 1    
    93   46  109 1    
    94   47   48 1    
    95   48  110 1    
    96   48  111 1    
    97   49   50 am   BACKBONE|DICT|INTERRES
    98   49  112 1    
    99   50   51 2    
   100   50   52 1    
   101   52   53 1    
   102   52   54 1    
   103   52  113 1    
   104   53  114 1    
   105   53  115 1    
   106   53  116 1    
   107   54   55 am   BACKBONE|DICT|INTERRES
   108   54  117 1    
   109   55   56 2    
   110   55   57 1    
   111   57   58 1    
   112   57   59 1    
   113   57  118 1    
   114   58  119 1    
   115   58  120 1    
   116   58  121 1    
   117   59   60 am   BACKBONE|DICT|INTERRES
   118   59  122 1    
   119   60   61 2    
   120   60   62 1    
   121   62   63 1    
   122   62   64 1    
   123   62  123 1    
   124   63  124 1    
   125   63  125 1    
   126   63  126 1    
   127   64   65 am   BACKBONE|DICT|INTERRES
   128   64  127 1    
   129   65   66 2    
@<TRIPOS>SUBSTRUCTURE
     1 UNK         1 GROUP             0       ****    0 ROOT    
