@<TRIPOS>MOLECULE
3R135
127   129    1
SMALL
USER_CHARGES


@<TRIPOS>ATOM
      1 CA        -84.5927   25.6268  -70.6989 C.3       0 UNK        -0.1998 
      2 C         -84.2435   26.2820  -72.0266 C.2       0 UNK         0.4909 
      3 O         -85.1428   26.6389  -72.7883 O.2       0 UNK        -0.5240 
      4 N         -82.9433   26.4426  -72.3106 N.am      1 UNK        -0.4739 
      5 CA        -82.4267   27.0360  -73.5532 C.3       1 UNK         0.0864 
      6 C6        -80.9548   27.4971  -73.3863 C.3       11 UNK        -0.0881 
      7 S7        -80.5687   28.9821  -74.3774 S.3       11 UNK        -0.2682 
      8 C8        -79.9482   30.1457  -73.1181 C.3       11 UNK         0.0289 
      9 C9        -78.5284   29.7998  -72.6920 C.ar      11 UNK        -0.0687 
     10 C10       -78.3048   28.9487  -71.6067 C.ar      11 UNK        -0.0823 
     11 C11       -77.0061   28.5797  -71.2482 C.ar      11 UNK        -0.0830 
     12 C12       -75.9221   29.1021  -71.9584 C.ar      11 UNK        -0.1021 
     13 C13       -76.1292   29.9748  -73.0307 C.ar      11 UNK        -0.0753 
     14 C14       -77.4358   30.3184  -73.3936 C.ar      11 UNK        -0.0933 
     15 C15       -74.9508   30.4986  -73.8384 C.3       11 UNK         0.0166 
     16 S16       -74.0999   31.8771  -73.0086 S.3       11 UNK        -0.2615 
     17 C17       -72.7438   31.0153  -72.1384 C.3       11 UNK        -0.0865 
     18 CA        -71.4082   31.0728  -72.9243 C.3       10 UNK         0.0862 
     19 C         -70.2494   30.4755  -72.0837 C.2       10 UNK         0.5551 
     20 N         -69.4061   31.3147  -71.4987 N.am      10 UNK        -0.7319 
     21 O         -70.1418   29.2620  -71.9199 O.2       10 UNK        -0.5018 
     22 N         -71.5266   30.4029  -74.2253 N.am      10 UNK        -0.4509 
     23 C         -70.6901   30.5607  -75.2566 C.2       10 UNK         0.4899 
     24 O         -69.7297   31.3329  -75.2514 O.2       10 UNK        -0.4839 
     25 CA        -71.0078   29.7183  -76.5079 C.3       9 UNK         0.0222 
     26 CB        -69.8923   29.7653  -77.5742 C.3       9 UNK        -0.1966 
     27 N         -71.3724   28.3332  -76.1820 N.am      9 UNK        -0.4218 
     28 C         -70.5991   27.4091  -75.5838 C.2       9 UNK         0.5020 
     29 O         -69.4333   27.6078  -75.2397 O.2       9 UNK        -0.5274 
     30 CA        -71.2167   26.0221  -75.3125 C.3       8 UNK         0.0270 
     31 CB        -71.4902   25.8442  -73.8097 C.3       8 UNK        -0.1976 
     32 N         -72.4491   25.7756  -76.0676 N.am      8 UNK        -0.4313 
     33 C         -72.4875   25.5321  -77.3872 C.2       8 UNK         0.5041 
     34 O         -71.4767   25.3864  -78.0760 O.2       8 UNK        -0.5577 
     35 CA        -73.8653   25.4627  -78.0765 C.3       7 UNK         0.0284 
     36 CB        -74.2179   24.0084  -78.4292 C.3       7 UNK        -0.1958 
     37 N         -74.9716   26.0491  -77.3147 N.am      7 UNK        -0.4454 
     38 C         -75.0652   27.3227  -76.9081 C.2       7 UNK         0.5089 
     39 O         -74.2103   28.1816  -77.1295 O.2       7 UNK        -0.5125 
     40 CA        -76.2827   27.6691  -76.0349 C.3       6 UNK         0.0408 
     41 CB        -77.5044   28.0101  -76.9005 C.3       6 UNK        -0.1791 
     42 N         -76.6186   26.6092  -75.0764 N.am      6 UNK        -0.4762 
     43 C         -75.8022   26.1843  -74.0975 C.2       6 UNK         0.5007 
     44 O         -74.6769   26.6468  -73.9107 O.2       6 UNK        -0.5032 
     45 CA        -76.2887   25.0034  -73.2308 C.3       5 UNK         0.0783 
     46 C46       -77.0936   25.4547  -71.9860 C.3       11 UNK        -0.0857 
     47 S47       -75.9934   26.0461  -70.6507 S.3       11 UNK        -0.2512 
     48 C48       -76.7835   27.5976  -70.1066 C.3       11 UNK         0.0225 
     49 N         -77.0226   24.0209  -74.0350 N.am      5 UNK        -0.4615 
     50 C         -76.4234   23.1327  -74.8396 C.2       4 UNK         0.5053 
     51 O         -75.2023   23.0206  -74.9464 O.2       4 UNK        -0.5105 
     52 CA        -77.3366   22.2251  -75.6796 C.3       4 UNK         0.0263 
     53 CB        -77.8231   21.0279  -74.8475 C.3       4 UNK        -0.1981 
     54 N         -78.4916   22.9073  -76.2719 N.am      4 UNK        -0.4224 
     55 C         -78.4422   23.9512  -77.1079 C.2       3 UNK         0.4895 
     56 O         -77.4001   24.5376  -77.3964 O.2       3 UNK        -0.5091 
     57 CA        -79.7593   24.4326  -77.7466 C.3       3 UNK         0.0250 
     58 CB        -80.0245   23.6749  -79.0613 C.3       3 UNK        -0.1996 
     59 N         -80.9505   24.4194  -76.8825 N.am      3 UNK        -0.4254 
     60 C         -81.5817   23.3881  -76.3037 C.2       2 UNK         0.5004 
     61 O         -81.1787   22.2246  -76.3551 O.2       2 UNK        -0.5226 
     62 CA        -82.8661   23.7238  -75.5175 C.3       2 UNK         0.0269 
     63 CB        -83.4679   22.4925  -74.8137 C.3       2 UNK        -0.1926 
     64 N         -82.6636   24.7795  -74.5199 N.am      2 UNK        -0.4687 
     65 C         -82.5904   26.0957  -74.7690 C.2       1 UNK         0.5165 
     66 O         -82.6403   26.5658  -75.9065 O.2       1 UNK        -0.5079 
     67 H67       -83.7035   25.3697  -70.1236 H         1 UNK         0.0900 
     68 H68       -85.2021   26.3007  -70.0972 H         1 UNK         0.0900 
     69 H69       -85.1620   24.7135  -70.8697 H         1 UNK         0.0900 
     70 H70       -82.2504   26.1348  -71.6427 H         1 UNK         0.2959 
     71 H71       -83.0419   27.9158  -73.7579 H         1 UNK         0.1079 
     72 H72       -80.7723   27.7356  -72.3400 H         1 UNK         0.0837 
     73 H73       -80.2442   26.7050  -73.6312 H         1 UNK         0.0837 
     74 H74       -79.9708   31.1544  -73.5332 H         1 UNK         0.0685 
     75 H75       -80.6193   30.1580  -72.2578 H         1 UNK         0.0685 
     76 H76       -79.1430   28.5537  -71.0510 H         1 UNK         0.1434 
     77 H77       -74.9202   28.7985  -71.6922 H         1 UNK         0.1329 
     78 H78       -77.6054   30.9741  -74.2367 H         1 UNK         0.1335 
     79 H79       -74.2565   29.6828  -74.0428 H         1 UNK         0.0680 
     80 H80       -75.2918   30.8491  -74.8138 H         1 UNK         0.0680 
     81 H81       -72.6276   31.4964  -71.1652 H         1 UNK         0.1032 
     82 H82       -73.0217   29.9825  -71.9270 H         1 UNK         0.1032 
     83 H83       -71.1831   32.1242  -73.1170 H         1 UNK         0.0461 
     84 H84       -69.4932   32.3117  -71.6224 H         1 UNK         0.3453 
     85 H85       -68.6577   30.9438  -70.9343 H         1 UNK         0.3453 
     86 H86       -72.2600   29.7167  -74.3060 H         1 UNK         0.2984 
     87 H87       -71.8992   30.1639  -76.9519 H         1 UNK         0.0554 
     88 H88       -70.1564   29.1739  -78.4508 H         1 UNK         0.0847 
     89 H89       -68.9442   29.3892  -77.1887 H         1 UNK         0.0847 
     90 H90       -69.7203   30.7875  -77.9136 H         1 UNK         0.0847 
     91 H91       -72.3213   28.0718  -76.4355 H         1 UNK         0.3141 
     92 H92       -70.4813   25.2722  -75.6116 H         1 UNK         0.0743 
     93 H93       -72.1298   26.6356  -73.4180 H         1 UNK         0.0784 
     94 H94       -71.9672   24.8871  -73.5978 H         1 UNK         0.0784 
     95 H95       -70.5598   25.8771  -73.2412 H         1 UNK         0.0784 
     96 H96       -73.3210   25.8900  -75.5640 H         1 UNK         0.3213 
     97 H97       -73.7813   26.0283  -79.0067 H         1 UNK         0.0855 
     98 H98       -74.3478   23.3985  -77.5347 H         1 UNK         0.0814 
     99 H99       -73.4313   23.5472  -79.0280 H         1 UNK         0.0814 
    100 H100      -75.1395   23.9522  -79.0090 H         1 UNK         0.0814 
    101 H101      -75.7635   25.4367  -77.1284 H         1 UNK         0.3105 
    102 H102      -76.0284   28.5580  -75.4610 H         1 UNK         0.0547 
    103 H103      -77.2830   28.8416  -77.5708 H         1 UNK         0.0837 
    104 H104      -77.8142   27.1695  -77.5204 H         1 UNK         0.0837 
    105 H105      -78.3536   28.3094  -76.2874 H         1 UNK         0.0837 
    106 H106      -77.5034   26.1432  -75.2058 H         1 UNK         0.3020 
    107 H107      -75.3869   24.5032  -72.8675 H         1 UNK         0.1245 
    108 H108      -77.6490   24.6100  -71.5753 H         1 UNK         0.0781 
    109 H109      -77.8442   26.2011  -72.2485 H         1 UNK         0.0781 
    110 H110      -76.1537   28.0681  -69.3504 H         1 UNK         0.0836 
    111 H111      -77.7248   27.3548  -69.6110 H         1 UNK         0.0836 
    112 H112      -78.0306   24.0410  -73.9937 H         1 UNK         0.3022 
    113 H113      -76.7351   21.8410  -76.5061 H         1 UNK         0.0747 
    114 H114      -78.3771   20.3179  -75.4621 H         1 UNK         0.0793 
    115 H115      -76.9825   20.4881  -74.4090 H         1 UNK         0.0793 
    116 H116      -78.4739   21.3409  -74.0301 H         1 UNK         0.0793 
    117 H117      -79.4063   22.4801  -76.1349 H         1 UNK         0.3047 
    118 H118      -79.6051   25.4814  -78.0044 H         1 UNK         0.0822 
    119 H119      -80.8927   24.0778  -79.5828 H         1 UNK         0.0807 
    120 H120      -80.1987   22.6119  -78.8914 H         1 UNK         0.0807 
    121 H121      -79.1731   23.7591  -79.7384 H         1 UNK         0.0807 
    122 H122      -81.3776   25.3296  -76.7312 H         1 UNK         0.2946 
    123 H123      -83.5970   24.0743  -76.2503 H         1 UNK         0.1144 
    124 H124      -84.4037   22.7399  -74.3120 H         1 UNK         0.0793 
    125 H125      -82.7862   22.0789  -74.0694 H         1 UNK         0.0793 
    126 H126      -83.6885   21.7000  -75.5303 H         1 UNK         0.0793 
    127 H127      -82.5950   24.4803  -73.5580 H         1 UNK         0.2896 
@<TRIPOS>BOND
     1    1    2 1    
     2    1   67 1    
     3    1   68 1    
     4    1   69 1    
     5    2    3 2    
     6    2    4 am   BACKBONE|DICT|INTERRES
     7    4    5 1    
     8    4   70 1    
     9    5    6 1    
    10    5   65 1    
    11    5   71 1    
    12    6    7 1    
    13    6   72 1    
    14    6   73 1    
    15    7    8 1    
    16    8    9 1    
    17    8   74 1    
    18    8   75 1    
    19    9   10 ar   
    20    9   14 ar   
    21   10   11 ar   
    22   10   76 1    
    23   11   12 ar   
    24   11   48 1    
    25   12   13 ar   
    26   12   77 1    
    27   13   14 ar   
    28   13   15 1    
    29   14   78 1    
    30   15   16 1    
    31   15   79 1    
    32   15   80 1    
    33   16   17 1    
    34   17   18 1    
    35   17   81 1    
    36   17   82 1    
    37   18   19 1    
    38   18   22 1    
    39   18   83 1    
    40   19   20 am   BACKBONE|DICT|INTERRES
    41   19   21 2    
    42   20   84 1    
    43   20   85 1    
    44   22   23 am   BACKBONE|DICT|INTERRES
    45   22   86 1    
    46   23   24 2    
    47   23   25 1    
    48   25   26 1    
    49   25   27 1    
    50   25   87 1    
    51   26   88 1    
    52   26   89 1    
    53   26   90 1    
    54   27   28 am   BACKBONE|DICT|INTERRES
    55   27   91 1    
    56   28   29 2    
    57   28   30 1    
    58   30   31 1    
    59   30   32 1    
    60   30   92 1    
    61   31   93 1    
    62   31   94 1    
    63   31   95 1    
    64   32   33 am   BACKBONE|DICT|INTERRES
    65   32   96 1    
    66   33   34 2    
    67   33   35 1    
    68   35   36 1    
    69   35   37 1    
    70   35   97 1    
    71   36   98 1    
    72   36   99 1    
    73   36  100 1    
    74   37   38 am   BACKBONE|DICT|INTERRES
    75   37  101 1    
    76   38   39 2    
    77   38   40 1    
    78   40   41 1    
    79   40   42 1    
    80   40  102 1    
    81   41  103 1    
    82   41  104 1    
    83   41  105 1    
    84   42   43 am   BACKBONE|DICT|INTERRES
    85   42  106 1    
    86   43   44 2    
    87   43   45 1    
    88   45   46 1    
    89   45   49 1    
    90   45  107 1    
    91   46   47 1    
    92   46  108 1    
    93   46  109 1    
    94   47   48 1    
    95   48  110 1    
    96   48  111 1    
    97   49   50 am   BACKBONE|DICT|INTERRES
    98   49  112 1    
    99   50   51 2    
   100   50   52 1    
   101   52   53 1    
   102   52   54 1    
   103   52  113 1    
   104   53  114 1    
   105   53  115 1    
   106   53  116 1    
   107   54   55 am   BACKBONE|DICT|INTERRES
   108   54  117 1    
   109   55   56 2    
   110   55   57 1    
   111   57   58 1    
   112   57   59 1    
   113   57  118 1    
   114   58  119 1    
   115   58  120 1    
   116   58  121 1    
   117   59   60 am   BACKBONE|DICT|INTERRES
   118   59  122 1    
   119   60   61 2    
   120   60   62 1    
   121   62   63 1    
   122   62   64 1    
   123   62  123 1    
   124   63  124 1    
   125   63  125 1    
   126   63  126 1    
   127   64   65 am   BACKBONE|DICT|INTERRES
   128   64  127 1    
   129   65   66 2    
@<TRIPOS>SUBSTRUCTURE
     1 UNK         1 GROUP             0       ****    0 ROOT    
