@<TRIPOS>MOLECULE
3R135
127   129    1
SMALL
USER_CHARGES


@<TRIPOS>ATOM
      1 CA        -83.1653   24.8010  -69.3954 C.3       0 UNK        -0.1998 
      2 C         -83.3104   25.7748  -70.5550 C.2       0 UNK         0.4909 
      3 O         -84.4238   25.9996  -71.0307 O.2       0 UNK        -0.5240 
      4 N         -82.1933   26.3548  -71.0131 N.am      1 UNK        -0.4739 
      5 CA        -82.1415   27.3220  -72.1204 C.3       1 UNK         0.0864 
      6 C6        -80.8084   28.1098  -72.1365 C.3       11 UNK        -0.0881 
      7 S7        -80.4909   28.9811  -70.5632 S.3       11 UNK        -0.2682 
      8 C8        -79.4041   30.3454  -71.1056 C.3       11 UNK         0.0289 
      9 C9        -78.1514   29.8860  -71.8491 C.ar      11 UNK        -0.0687 
     10 C10       -77.4354   28.7545  -71.4391 C.ar      11 UNK        -0.0823 
     11 C11       -76.3169   28.3220  -72.1558 C.ar      11 UNK        -0.0830 
     12 C12       -75.8829   29.0557  -73.2609 C.ar      11 UNK        -0.1021 
     13 C13       -76.5570   30.2133  -73.6544 C.ar      11 UNK        -0.0753 
     14 C14       -77.6997   30.6142  -72.9553 C.ar      11 UNK        -0.0933 
     15 C15       -76.0479   31.0214  -74.8392 C.3       11 UNK         0.0166 
     16 S16       -75.4688   32.6861  -74.3676 S.3       11 UNK        -0.2615 
     17 C17       -74.1848   32.3681  -73.1028 C.3       11 UNK        -0.0865 
     18 CA        -72.7394   32.4033  -73.6866 C.3       10 UNK         0.0862 
     19 C         -71.6030   32.5410  -72.6225 C.2       10 UNK         0.5551 
     20 N         -71.8687   33.1070  -71.4519 N.am      10 UNK        -0.7319 
     21 O         -70.4497   32.1964  -72.8756 O.2       10 UNK        -0.5018 
     22 N         -72.5080   31.3058  -74.6417 N.am      10 UNK        -0.4509 
     23 C         -72.3991   30.0048  -74.3372 C.2       10 UNK         0.4899 
     24 O         -72.4819   29.5553  -73.1918 O.2       10 UNK        -0.4839 
     25 CA        -72.2501   29.0499  -75.5363 C.3       9 UNK         0.0222 
     26 CB        -71.1633   29.5006  -76.5381 C.3       9 UNK        -0.1966 
     27 N         -72.0595   27.6513  -75.1357 N.am      9 UNK        -0.4218 
     28 C         -70.9812   27.0860  -74.5696 C.2       9 UNK         0.5020 
     29 O         -69.9421   27.6842  -74.2870 O.2       9 UNK        -0.5274 
     30 CA        -71.0652   25.5718  -74.3088 C.3       8 UNK         0.0270 
     31 CB        -71.7207   25.2821  -72.9485 C.3       8 UNK        -0.1976 
     32 N         -71.8115   24.8937  -75.3720 N.am      8 UNK        -0.4313 
     33 C         -71.2747   24.4846  -76.5313 C.2       8 UNK         0.5041 
     34 O         -70.0666   24.4999  -76.7709 O.2       8 UNK        -0.5577 
     35 CA        -72.2485   23.9925  -77.6194 C.3       7 UNK         0.0284 
     36 CB        -72.5088   22.4853  -77.4705 C.3       7 UNK        -0.1958 
     37 N         -73.5232   24.7153  -77.6027 N.am      7 UNK        -0.4454 
     38 C         -73.6630   26.0104  -77.9294 C.2       7 UNK         0.5089 
     39 O         -72.7591   26.6901  -78.4142 O.2       7 UNK        -0.5125 
     40 CA        -75.0209   26.6816  -77.6381 C.3       6 UNK         0.0408 
     41 CB        -75.7983   26.9056  -78.9436 C.3       6 UNK        -0.1791 
     42 N         -75.8600   25.9484  -76.6826 N.am      6 UNK        -0.4762 
     43 C         -75.5404   25.7167  -75.3978 C.2       6 UNK         0.5007 
     44 O         -74.5008   26.1352  -74.8871 O.2       6 UNK        -0.5032 
     45 CA        -76.4811   24.8111  -74.5702 C.3       5 UNK         0.0783 
     46 C46       -77.3125   25.6217  -73.5406 C.3       11 UNK        -0.0857 
     47 S47       -76.6201   25.5612  -71.8509 S.3       11 UNK        -0.2512 
     48 C48       -75.5780   27.0555  -71.7512 C.3       11 UNK         0.0225 
     49 N         -77.3338   23.9659  -75.4153 N.am      5 UNK        -0.4615 
     50 C         -76.8824   22.9589  -76.1796 C.2       4 UNK         0.5053 
     51 O         -75.6952   22.6382  -76.2383 O.2       4 UNK        -0.5105 
     52 CA        -77.9038   22.2035  -77.0517 C.3       4 UNK         0.0263 
     53 CB        -78.3382   20.9030  -76.3575 C.3       4 UNK        -0.1981 
     54 N         -79.0943   22.9883  -77.3899 N.am      4 UNK        -0.4224 
     55 C         -79.0937   24.1265  -78.0990 C.2       3 UNK         0.4895 
     56 O         -78.0834   24.6117  -78.6061 O.2       3 UNK        -0.5091 
     57 CA        -80.4309   24.8806  -78.2218 C.3       3 UNK         0.0250 
     58 CB        -81.1178   24.5381  -79.5534 C.3       3 UNK        -0.1996 
     59 N         -81.3689   24.6457  -77.1149 N.am      3 UNK        -0.4254 
     60 C         -81.1182   24.9027  -75.8230 C.2       2 UNK         0.5004 
     61 O         -80.0345   25.3176  -75.4050 O.2       2 UNK        -0.5226 
     62 CA        -82.2438   24.5680  -74.8310 C.3       2 UNK         0.0269 
     63 CB        -82.2050   23.0738  -74.4682 C.3       2 UNK        -0.1926 
     64 N         -82.1342   25.3514  -73.5998 N.am      2 UNK        -0.4687 
     65 C         -82.3885   26.6640  -73.4961 C.2       1 UNK         0.5165 
     66 O         -82.8095   27.3512  -74.4284 O.2       1 UNK        -0.5079 
     67 H67       -83.7550   25.1409  -68.5444 H         1 UNK         0.0900 
     68 H68       -82.1290   24.7034  -69.0720 H         1 UNK         0.0900 
     69 H69       -83.5241   23.8143  -69.6869 H         1 UNK         0.0900 
     70 H70       -81.3088   26.1586  -70.5658 H         1 UNK         0.2959 
     71 H71       -82.9516   28.0396  -71.9706 H         1 UNK         0.1079 
     72 H72       -79.9676   27.4423  -72.3381 H         1 UNK         0.0837 
     73 H73       -80.8144   28.8451  -72.9440 H         1 UNK         0.0837 
     74 H74       -79.9909   31.0213  -71.7297 H         1 UNK         0.0685 
     75 H75       -79.0990   30.9193  -70.2298 H         1 UNK         0.0685 
     76 H76       -77.7656   28.1864  -70.5804 H         1 UNK         0.1434 
     77 H77       -75.0143   28.7238  -73.8123 H         1 UNK         0.1329 
     78 H78       -78.2294   31.5029  -73.2705 H         1 UNK         0.1335 
     79 H79       -76.8525   31.1251  -75.5683 H         1 UNK         0.0680 
     80 H80       -75.2419   30.4965  -75.3526 H         1 UNK         0.0680 
     81 H81       -74.3729   31.4289  -72.5819 H         1 UNK         0.1032 
     82 H82       -74.3208   33.1492  -72.3548 H         1 UNK         0.1032 
     83 H83       -72.6531   33.3160  -74.2773 H         1 UNK         0.0461 
     84 H84       -71.1213   33.2129  -70.7836 H         1 UNK         0.3453 
     85 H85       -72.7933   33.4317  -71.2200 H         1 UNK         0.3453 
     86 H86       -72.4150   31.5868  -75.6063 H         1 UNK         0.2984 
     87 H87       -73.2062   29.0696  -76.0598 H         1 UNK         0.0554 
     88 H88       -71.0229   28.7603  -77.3262 H         1 UNK         0.0847 
     89 H89       -70.2002   29.6559  -76.0506 H         1 UNK         0.0847 
     90 H90       -71.4335   30.4357  -77.0287 H         1 UNK         0.0847 
     91 H91       -72.8925   27.0731  -75.2038 H         1 UNK         0.3141 
     92 H92       -70.0459   25.1802  -74.2787 H         1 UNK         0.0743 
     93 H93       -72.7499   25.6373  -72.9076 H         1 UNK         0.0784 
     94 H94       -71.7268   24.2138  -72.7318 H         1 UNK         0.0784 
     95 H95       -71.1750   25.7738  -72.1420 H         1 UNK         0.0784 
     96 H96       -72.8190   24.8818  -75.2744 H         1 UNK         0.3213 
     97 H97       -71.7762   24.1635  -78.5894 H         1 UNK         0.0855 
     98 H98       -72.9717   22.2469  -76.5120 H         1 UNK         0.0814 
     99 H99       -71.5767   21.9218  -77.5308 H         1 UNK         0.0814 
    100 H100      -73.1633   22.1145  -78.2595 H         1 UNK         0.0814 
    101 H101      -74.3246   24.2188  -77.2329 H         1 UNK         0.3105 
    102 H102      -74.8127   27.6596  -77.2007 H         1 UNK         0.0547 
    103 H103      -75.2384   27.5488  -79.6237 H         1 UNK         0.0837 
    104 H104      -75.9844   25.9675  -79.4673 H         1 UNK         0.0837 
    105 H105      -76.7594   27.3863  -78.7609 H         1 UNK         0.0837 
    106 H106      -76.7099   25.5394  -77.0534 H         1 UNK         0.3020 
    107 H107      -75.8279   24.1264  -74.0240 H         1 UNK         0.1245 
    108 H108      -78.3104   25.1922  -73.4436 H         1 UNK         0.0781 
    109 H109      -77.4892   26.6486  -73.8643 H         1 UNK         0.0781 
    110 H110      -74.6910   26.9121  -72.3682 H         1 UNK         0.0836 
    111 H111      -75.2178   27.1662  -70.7277 H         1 UNK         0.0836 
    112 H112      -78.3172   24.2167  -75.4470 H         1 UNK         0.3022 
    113 H113      -77.4020   21.9441  -77.9863 H         1 UNK         0.0747 
    114 H114      -78.9903   20.3088  -76.9980 H         1 UNK         0.0793 
    115 H115      -77.4740   20.2827  -76.1149 H         1 UNK         0.0793 
    116 H116      -78.8694   21.1003  -75.4253 H         1 UNK         0.0793 
    117 H117      -79.9734   22.6655  -77.0138 H         1 UNK         0.3047 
    118 H118      -80.1944   25.9469  -78.2240 H         1 UNK         0.0822 
    119 H119      -82.0106   25.1442  -79.7083 H         1 UNK         0.0807 
    120 H120      -81.4105   23.4883  -79.5994 H         1 UNK         0.0807 
    121 H121      -80.4514   24.7275  -80.3965 H         1 UNK         0.0807 
    122 H122      -82.2775   24.2848  -77.3696 H         1 UNK         0.2946 
    123 H123      -83.2034   24.7982  -75.3000 H         1 UNK         0.1144 
    124 H124      -82.3324   22.4488  -75.3530 H         1 UNK         0.0793 
    125 H125      -83.0055   22.8136  -73.7751 H         1 UNK         0.0793 
    126 H126      -81.2572   22.7948  -74.0053 H         1 UNK         0.0793 
    127 H127      -81.7720   24.8757  -72.7869 H         1 UNK         0.2896 
@<TRIPOS>BOND
     1    1    2 1    
     2    1   67 1    
     3    1   68 1    
     4    1   69 1    
     5    2    3 2    
     6    2    4 am   BACKBONE|DICT|INTERRES
     7    4    5 1    
     8    4   70 1    
     9    5    6 1    
    10    5   65 1    
    11    5   71 1    
    12    6    7 1    
    13    6   72 1    
    14    6   73 1    
    15    7    8 1    
    16    8    9 1    
    17    8   74 1    
    18    8   75 1    
    19    9   10 ar   
    20    9   14 ar   
    21   10   11 ar   
    22   10   76 1    
    23   11   12 ar   
    24   11   48 1    
    25   12   13 ar   
    26   12   77 1    
    27   13   14 ar   
    28   13   15 1    
    29   14   78 1    
    30   15   16 1    
    31   15   79 1    
    32   15   80 1    
    33   16   17 1    
    34   17   18 1    
    35   17   81 1    
    36   17   82 1    
    37   18   19 1    
    38   18   22 1    
    39   18   83 1    
    40   19   20 am   BACKBONE|DICT|INTERRES
    41   19   21 2    
    42   20   84 1    
    43   20   85 1    
    44   22   23 am   BACKBONE|DICT|INTERRES
    45   22   86 1    
    46   23   24 2    
    47   23   25 1    
    48   25   26 1    
    49   25   27 1    
    50   25   87 1    
    51   26   88 1    
    52   26   89 1    
    53   26   90 1    
    54   27   28 am   BACKBONE|DICT|INTERRES
    55   27   91 1    
    56   28   29 2    
    57   28   30 1    
    58   30   31 1    
    59   30   32 1    
    60   30   92 1    
    61   31   93 1    
    62   31   94 1    
    63   31   95 1    
    64   32   33 am   BACKBONE|DICT|INTERRES
    65   32   96 1    
    66   33   34 2    
    67   33   35 1    
    68   35   36 1    
    69   35   37 1    
    70   35   97 1    
    71   36   98 1    
    72   36   99 1    
    73   36  100 1    
    74   37   38 am   BACKBONE|DICT|INTERRES
    75   37  101 1    
    76   38   39 2    
    77   38   40 1    
    78   40   41 1    
    79   40   42 1    
    80   40  102 1    
    81   41  103 1    
    82   41  104 1    
    83   41  105 1    
    84   42   43 am   BACKBONE|DICT|INTERRES
    85   42  106 1    
    86   43   44 2    
    87   43   45 1    
    88   45   46 1    
    89   45   49 1    
    90   45  107 1    
    91   46   47 1    
    92   46  108 1    
    93   46  109 1    
    94   47   48 1    
    95   48  110 1    
    96   48  111 1    
    97   49   50 am   BACKBONE|DICT|INTERRES
    98   49  112 1    
    99   50   51 2    
   100   50   52 1    
   101   52   53 1    
   102   52   54 1    
   103   52  113 1    
   104   53  114 1    
   105   53  115 1    
   106   53  116 1    
   107   54   55 am   BACKBONE|DICT|INTERRES
   108   54  117 1    
   109   55   56 2    
   110   55   57 1    
   111   57   58 1    
   112   57   59 1    
   113   57  118 1    
   114   58  119 1    
   115   58  120 1    
   116   58  121 1    
   117   59   60 am   BACKBONE|DICT|INTERRES
   118   59  122 1    
   119   60   61 2    
   120   60   62 1    
   121   62   63 1    
   122   62   64 1    
   123   62  123 1    
   124   63  124 1    
   125   63  125 1    
   126   63  126 1    
   127   64   65 am   BACKBONE|DICT|INTERRES
   128   64  127 1    
   129   65   66 2    
@<TRIPOS>SUBSTRUCTURE
     1 UNK         1 GROUP             0       ****    0 ROOT    
