@<TRIPOS>MOLECULE
3R135
127   129    1
SMALL
USER_CHARGES


@<TRIPOS>ATOM
      1 CA        -83.0179   25.6910  -74.2984 C.3       0 UNK        -0.1998 
      2 C         -82.1717   25.9342  -73.0516 C.2       0 UNK         0.4909 
      3 O         -82.4651   25.3544  -72.0080 O.2       0 UNK        -0.5240 
      4 N         -81.1273   26.7742  -73.0884 N.am      1 UNK        -0.4739 
      5 CA        -80.5926   27.5265  -74.2331 C.3       1 UNK         0.0864 
      6 C6        -79.4654   28.4906  -73.7881 C.3       11 UNK        -0.0881 
      7 S7        -79.9863   29.6957  -72.5165 S.3       11 UNK        -0.2682 
      8 C8        -79.2290   29.0400  -70.9880 C.3       11 UNK         0.0289 
      9 C9        -77.7310   28.7968  -71.1256 C.ar      11 UNK        -0.0687 
     10 C10       -77.2135   27.5053  -70.9838 C.ar      11 UNK        -0.0823 
     11 C11       -75.8481   27.2643  -71.1591 C.ar      11 UNK        -0.0830 
     12 C12       -74.9979   28.3270  -71.4800 C.ar      11 UNK        -0.1021 
     13 C13       -75.5007   29.6268  -71.6096 C.ar      11 UNK        -0.0753 
     14 C14       -76.8669   29.8549  -71.4221 C.ar      11 UNK        -0.0933 
     15 C15       -74.5928   30.7738  -72.0315 C.3       11 UNK         0.0166 
     16 S16       -73.1101   30.9362  -70.9963 S.3       11 UNK        -0.2615 
     17 C17       -72.1936   32.2151  -71.9308 C.3       11 UNK        -0.0865 
     18 CA        -71.2397   31.6779  -73.0367 C.3       10 UNK         0.0862 
     19 C         -70.1851   30.6677  -72.5047 C.2       10 UNK         0.5551 
     20 N         -70.2145   29.3999  -72.8948 N.am      10 UNK        -0.7319 
     21 O         -69.3006   31.0532  -71.7436 O.2       10 UNK        -0.5018 
     22 N         -71.9520   31.2350  -74.2503 N.am      10 UNK        -0.4509 
     23 C         -72.2555   32.0375  -75.2824 C.2       10 UNK         0.4899 
     24 O         -72.0469   33.2514  -75.2814 O.2       10 UNK        -0.4839 
     25 CA        -72.8712   31.4078  -76.5495 C.3       9 UNK         0.0222 
     26 CB        -71.7876   31.2067  -77.6216 C.3       9 UNK        -0.1966 
     27 N         -73.5384   30.1304  -76.3047 N.am      9 UNK        -0.4218 
     28 C         -74.7298   29.9903  -75.7115 C.2       9 UNK         0.5020 
     29 O         -75.4662   30.9407  -75.4439 O.2       9 UNK        -0.5274 
     30 CA        -75.1810   28.5649  -75.3245 C.3       8 UNK         0.0270 
     31 CB        -76.4206   28.1528  -76.1335 C.3       8 UNK        -0.1976 
     32 N         -74.1717   27.4993  -75.4277 N.am      8 UNK        -0.4313 
     33 C         -72.9710   27.4576  -74.8295 C.2       8 UNK         0.5041 
     34 O         -72.5108   28.3900  -74.1677 O.2       8 UNK        -0.5577 
     35 CA        -72.1238   26.1847  -75.0174 C.3       7 UNK         0.0284 
     36 CB        -71.3466   25.8308  -73.7361 C.3       7 UNK        -0.1958 
     37 N         -72.9303   25.0271  -75.4111 N.am      7 UNK        -0.4454 
     38 C         -73.1006   24.5768  -76.6615 C.2       7 UNK         0.5089 
     39 O         -72.6070   25.1120  -77.6536 O.2       7 UNK        -0.5125 
     40 CA        -73.9774   23.3212  -76.8367 C.3       6 UNK         0.0408 
     41 CB        -73.0955   22.0741  -77.0074 C.3       6 UNK        -0.1791 
     42 N         -74.8997   23.1100  -75.7155 N.am      6 UNK        -0.4762 
     43 C         -76.0139   23.8271  -75.5164 C.2       6 UNK         0.5007 
     44 O         -76.4217   24.6839  -76.3020 O.2       6 UNK        -0.5032 
     45 CA        -76.7605   23.5939  -74.1916 C.3       5 UNK         0.0783 
     46 C46       -76.6601   24.8279  -73.2597 C.3       11 UNK        -0.0857 
     47 S47       -74.9748   25.0561  -72.5979 S.3       11 UNK        -0.2512 
     48 C48       -75.2904   25.8577  -70.9956 C.3       11 UNK         0.0225 
     49 N         -78.1532   23.2649  -74.4794 N.am      5 UNK        -0.4615 
     50 C         -78.6232   22.0263  -74.6630 C.2       4 UNK         0.5053 
     51 O         -77.9190   21.0173  -74.6178 O.2       4 UNK        -0.5105 
     52 CA        -80.1286   21.8780  -74.9233 C.3       4 UNK         0.0263 
     53 CB        -80.9285   22.1090  -73.6297 C.3       4 UNK        -0.1981 
     54 N         -80.5984   22.8038  -75.9561 N.am      4 UNK        -0.4224 
     55 C         -81.2994   22.4449  -77.0427 C.2       3 UNK         0.4895 
     56 O         -81.6046   21.2800  -77.3028 O.2       3 UNK        -0.5091 
     57 CA        -81.7706   23.5551  -78.0055 C.3       3 UNK         0.0250 
     58 CB        -83.2931   23.7512  -77.9049 C.3       3 UNK        -0.1996 
     59 N         -81.1079   24.8434  -77.7929 N.am      3 UNK        -0.4254 
     60 C         -79.8442   25.1121  -78.1459 C.2       2 UNK         0.5004 
     61 O         -79.1338   24.3297  -78.7774 O.2       2 UNK        -0.5226 
     62 CA        -79.2649   26.4707  -77.7098 C.3       2 UNK         0.0269 
     63 CB        -79.2389   27.4511  -78.8936 C.3       2 UNK        -0.1926 
     64 N         -79.9314   27.1175  -76.5669 N.am      2 UNK        -0.4687 
     65 C         -80.0455   26.5965  -75.3366 C.2       1 UNK         0.5165 
     66 O         -79.7185   25.4422  -75.0568 O.2       1 UNK        -0.5079 
     67 H67       -84.0198   25.3690  -74.0152 H         1 UNK         0.0900 
     68 H68       -83.1264   26.5851  -74.9097 H         1 UNK         0.0900 
     69 H69       -82.5725   24.8995  -74.8987 H         1 UNK         0.0900 
     70 H70       -80.6030   26.8966  -72.2362 H         1 UNK         0.2959 
     71 H71       -81.4050   28.1208  -74.6553 H         1 UNK         0.1079 
     72 H72       -79.1129   29.0781  -74.6377 H         1 UNK         0.0837 
     73 H73       -78.5963   27.9277  -73.4456 H         1 UNK         0.0837 
     74 H74       -79.7473   28.1239  -70.7020 H         1 UNK         0.0685 
     75 H75       -79.3995   29.7513  -70.1788 H         1 UNK         0.0685 
     76 H76       -77.8754   26.6831  -70.7489 H         1 UNK         0.1434 
     77 H77       -73.9446   28.1416  -71.6445 H         1 UNK         0.1329 
     78 H78       -77.2700   30.8510  -71.5439 H         1 UNK         0.1335 
     79 H79       -74.2766   30.5928  -73.0541 H         1 UNK         0.0680 
     80 H80       -75.1323   31.7221  -72.0327 H         1 UNK         0.0680 
     81 H81       -72.8983   32.9301  -72.3583 H         1 UNK         0.1032 
     82 H82       -71.6128   32.7883  -71.2060 H         1 UNK         0.1032 
     83 H83       -70.6240   32.5288  -73.3358 H         1 UNK         0.0461 
     84 H84       -69.5103   28.7700  -72.5475 H         1 UNK         0.3453 
     85 H85       -70.9975   29.0350  -73.4315 H         1 UNK         0.3453 
     86 H86       -72.1664   30.2422  -74.3012 H         1 UNK         0.2984 
     87 H87       -73.6082   32.1118  -76.9420 H         1 UNK         0.0554 
     88 H88       -71.0177   30.5072  -77.2931 H         1 UNK         0.0847 
     89 H89       -72.2128   30.8279  -78.5512 H         1 UNK         0.0847 
     90 H90       -71.2910   32.1495  -77.8561 H         1 UNK         0.0847 
     91 H91       -72.9976   29.2941  -76.4681 H         1 UNK         0.3141 
     92 H92       -75.4759   28.6152  -74.2760 H         1 UNK         0.0743 
     93 H93       -76.1736   27.9451  -77.1752 H         1 UNK         0.0784 
     94 H94       -76.8816   27.2619  -75.7092 H         1 UNK         0.0784 
     95 H95       -77.1792   28.9362  -76.1291 H         1 UNK         0.0784 
     96 H96       -74.4479   26.6845  -75.9570 H         1 UNK         0.3213 
     97 H97       -71.3936   26.4043  -75.7990 H         1 UNK         0.0855 
     98 H98       -72.0113   25.6999  -72.8817 H         1 UNK         0.0814 
     99 H99       -70.6370   26.6165  -73.4772 H         1 UNK         0.0814 
    100 H100      -70.7726   24.9124  -73.8598 H         1 UNK         0.0814 
    101 H101      -73.4122   24.5476  -74.6629 H         1 UNK         0.3105 
    102 H102      -74.5621   23.4507  -77.7502 H         1 UNK         0.0547 
    103 H103      -73.6971   21.1847  -77.1956 H         1 UNK         0.0837 
    104 H104      -72.4826   21.8862  -76.1249 H         1 UNK         0.0837 
    105 H105      -72.4180   22.1891  -77.8548 H         1 UNK         0.0837 
    106 H106      -74.6334   22.4112  -75.0354 H         1 UNK         0.3020 
    107 H107      -76.3065   22.7474  -73.6708 H         1 UNK         0.1245 
    108 H108      -77.3426   24.7011  -72.4180 H         1 UNK         0.0781 
    109 H109      -76.9749   25.7422  -73.7665 H         1 UNK         0.0781 
    110 H110      -74.3538   25.9050  -70.4382 H         1 UNK         0.0836 
    111 H111      -75.9636   25.2370  -70.4023 H         1 UNK         0.0836 
    112 H112      -78.7734   24.0640  -74.6023 H         1 UNK         0.3022 
    113 H113      -80.2922   20.8449  -75.2372 H         1 UNK         0.0747 
    114 H114      -81.9930   21.9351  -73.7872 H         1 UNK         0.0793 
    115 H115      -80.6018   21.4297  -72.8412 H         1 UNK         0.0793 
    116 H116      -80.8090   23.1264  -73.2551 H         1 UNK         0.0793 
    117 H117      -80.3508   23.7804  -75.8305 H         1 UNK         0.3047 
    118 H118      -81.5419   23.2170  -79.0188 H         1 UNK         0.0822 
    119 H119      -83.6473   24.4875  -78.6267 H         1 UNK         0.0807 
    120 H120      -83.5987   24.0795  -76.9116 H         1 UNK         0.0807 
    121 H121      -83.8205   22.8192  -78.1135 H         1 UNK         0.0807 
    122 H122      -81.6287   25.5556  -77.3035 H         1 UNK         0.2946 
    123 H123      -78.2336   26.2707  -77.4144 H         1 UNK         0.1144 
    124 H124      -78.7094   28.3691  -78.6377 H         1 UNK         0.0793 
    125 H125      -80.2453   27.7198  -79.2168 H         1 UNK         0.0793 
    126 H126      -78.7261   27.0149  -79.7522 H         1 UNK         0.0793 
    127 H127      -80.2401   28.0672  -76.7207 H         1 UNK         0.2896 
@<TRIPOS>BOND
     1    1    2 1    
     2    1   67 1    
     3    1   68 1    
     4    1   69 1    
     5    2    3 2    
     6    2    4 am   BACKBONE|DICT|INTERRES
     7    4    5 1    
     8    4   70 1    
     9    5    6 1    
    10    5   65 1    
    11    5   71 1    
    12    6    7 1    
    13    6   72 1    
    14    6   73 1    
    15    7    8 1    
    16    8    9 1    
    17    8   74 1    
    18    8   75 1    
    19    9   10 ar   
    20    9   14 ar   
    21   10   11 ar   
    22   10   76 1    
    23   11   12 ar   
    24   11   48 1    
    25   12   13 ar   
    26   12   77 1    
    27   13   14 ar   
    28   13   15 1    
    29   14   78 1    
    30   15   16 1    
    31   15   79 1    
    32   15   80 1    
    33   16   17 1    
    34   17   18 1    
    35   17   81 1    
    36   17   82 1    
    37   18   19 1    
    38   18   22 1    
    39   18   83 1    
    40   19   20 am   BACKBONE|DICT|INTERRES
    41   19   21 2    
    42   20   84 1    
    43   20   85 1    
    44   22   23 am   BACKBONE|DICT|INTERRES
    45   22   86 1    
    46   23   24 2    
    47   23   25 1    
    48   25   26 1    
    49   25   27 1    
    50   25   87 1    
    51   26   88 1    
    52   26   89 1    
    53   26   90 1    
    54   27   28 am   BACKBONE|DICT|INTERRES
    55   27   91 1    
    56   28   29 2    
    57   28   30 1    
    58   30   31 1    
    59   30   32 1    
    60   30   92 1    
    61   31   93 1    
    62   31   94 1    
    63   31   95 1    
    64   32   33 am   BACKBONE|DICT|INTERRES
    65   32   96 1    
    66   33   34 2    
    67   33   35 1    
    68   35   36 1    
    69   35   37 1    
    70   35   97 1    
    71   36   98 1    
    72   36   99 1    
    73   36  100 1    
    74   37   38 am   BACKBONE|DICT|INTERRES
    75   37  101 1    
    76   38   39 2    
    77   38   40 1    
    78   40   41 1    
    79   40   42 1    
    80   40  102 1    
    81   41  103 1    
    82   41  104 1    
    83   41  105 1    
    84   42   43 am   BACKBONE|DICT|INTERRES
    85   42  106 1    
    86   43   44 2    
    87   43   45 1    
    88   45   46 1    
    89   45   49 1    
    90   45  107 1    
    91   46   47 1    
    92   46  108 1    
    93   46  109 1    
    94   47   48 1    
    95   48  110 1    
    96   48  111 1    
    97   49   50 am   BACKBONE|DICT|INTERRES
    98   49  112 1    
    99   50   51 2    
   100   50   52 1    
   101   52   53 1    
   102   52   54 1    
   103   52  113 1    
   104   53  114 1    
   105   53  115 1    
   106   53  116 1    
   107   54   55 am   BACKBONE|DICT|INTERRES
   108   54  117 1    
   109   55   56 2    
   110   55   57 1    
   111   57   58 1    
   112   57   59 1    
   113   57  118 1    
   114   58  119 1    
   115   58  120 1    
   116   58  121 1    
   117   59   60 am   BACKBONE|DICT|INTERRES
   118   59  122 1    
   119   60   61 2    
   120   60   62 1    
   121   62   63 1    
   122   62   64 1    
   123   62  123 1    
   124   63  124 1    
   125   63  125 1    
   126   63  126 1    
   127   64   65 am   BACKBONE|DICT|INTERRES
   128   64  127 1    
   129   65   66 2    
@<TRIPOS>SUBSTRUCTURE
     1 UNK         1 GROUP             0       ****    0 ROOT    
