@<TRIPOS>MOLECULE
3R135
127   129    1
SMALL
USER_CHARGES


@<TRIPOS>ATOM
      1 CA        -81.3499   29.4528  -76.7087 C.3       0 UNK        -0.1998 
      2 C         -81.9090   28.8020  -75.4520 C.2       0 UNK         0.4909 
      3 O         -83.0867   28.4442  -75.4240 O.2       0 UNK        -0.5240 
      4 N         -81.0650   28.6494  -74.4224 N.am      1 UNK        -0.4739 
      5 CA        -81.3656   28.0459  -73.1142 C.3       1 UNK         0.0864 
      6 C6        -82.3151   28.8935  -72.2216 C.3       11 UNK        -0.0881 
      7 S7        -81.7980   30.6411  -72.0580 S.3       11 UNK        -0.2682 
      8 C8        -80.6132   30.5895  -70.6714 C.3       11 UNK         0.0289 
      9 C9        -79.3262   29.8675  -71.0478 C.ar      11 UNK        -0.0687 
     10 C10       -79.0050   28.6418  -70.4546 C.ar      11 UNK        -0.0823 
     11 C11       -77.8588   27.9385  -70.8392 C.ar      11 UNK        -0.0830 
     12 C12       -77.0204   28.4946  -71.8133 C.ar      11 UNK        -0.1021 
     13 C13       -77.3114   29.7297  -72.3941 C.ar      11 UNK        -0.0753 
     14 C14       -78.4672   30.4131  -72.0076 C.ar      11 UNK        -0.0933 
     15 C15       -76.3824   30.3128  -73.4495 C.3       11 UNK         0.0166 
     16 S16       -75.1752   31.4670  -72.7246 S.3       11 UNK        -0.2615 
     17 C17       -74.0030   30.3401  -71.8877 C.3       11 UNK        -0.0865 
     18 CA        -72.5959   30.3609  -72.5331 C.3       10 UNK         0.0862 
     19 C         -71.5883   29.5382  -71.6880 C.2       10 UNK         0.5551 
     20 N         -70.7935   30.1953  -70.8548 N.am      10 UNK        -0.7319 
     21 O         -71.5557   28.3108  -71.7475 O.2       10 UNK        -0.5018 
     22 N         -72.6288   29.8874  -73.9228 N.am      10 UNK        -0.4509 
     23 C         -71.7167   30.2099  -74.8463 C.2       10 UNK         0.4899 
     24 O         -70.7800   30.9858  -74.6455 O.2       10 UNK        -0.4839 
     25 CA        -71.9001   29.5566  -76.2273 C.3       9 UNK         0.0222 
     26 CB        -70.8090   29.9602  -77.2422 C.3       9 UNK        -0.1966 
     27 N         -72.0258   28.0973  -76.1505 N.am      9 UNK        -0.4218 
     28 C         -71.1219   27.2188  -75.6838 C.2       9 UNK         0.5020 
     29 O         -70.0282   27.5409  -75.2171 O.2       9 UNK        -0.5274 
     30 CA        -71.4733   25.7175  -75.7581 C.3       8 UNK         0.0270 
     31 CB        -71.7412   25.1538  -74.3525 C.3       8 UNK        -0.1976 
     32 N         -72.6132   25.4116  -76.6283 N.am      8 UNK        -0.4313 
     33 C         -72.6140   25.5274  -77.9640 C.2       8 UNK         0.5041 
     34 O         -71.6150   25.8108  -78.6261 O.2       8 UNK        -0.5577 
     35 CA        -73.9630   25.3419  -78.6827 C.3       7 UNK         0.0284 
     36 CB        -74.1472   23.8784  -79.1122 C.3       7 UNK        -0.1958 
     37 N         -75.1194   25.7843  -77.8912 N.am      7 UNK        -0.4454 
     38 C         -75.3212   27.0476  -77.4813 C.2       7 UNK         0.5089 
     39 O         -74.5597   27.9788  -77.7399 O.2       7 UNK        -0.5125 
     40 CA        -76.5417   27.3127  -76.5861 C.3       6 UNK         0.0408 
     41 CB        -77.8318   27.3825  -77.4178 C.3       6 UNK        -0.1791 
     42 N         -76.6824   26.2994  -75.5431 N.am      6 UNK        -0.4762 
     43 C         -75.8370   26.1210  -74.5183 C.2       6 UNK         0.5007 
     44 O         -74.8869   26.8686  -74.2825 O.2       6 UNK        -0.5032 
     45 CA        -76.0613   24.8604  -73.6553 C.3       5 UNK         0.0783 
     46 C46       -77.0783   25.0849  -72.5054 C.3       11 UNK        -0.0857 
     47 S47       -76.2641   25.5785  -70.9516 S.3       11 UNK        -0.2512 
     48 C48       -77.5657   26.5947  -70.1679 C.3       11 UNK         0.0225 
     49 N         -76.4416   23.7083  -74.4773 N.am      5 UNK        -0.4615 
     50 C         -75.6156   23.0578  -75.3051 C.2       4 UNK         0.5053 
     51 O         -74.4408   23.3748  -75.4847 O.2       4 UNK        -0.5105 
     52 CA        -76.2042   21.8591  -76.0682 C.3       4 UNK         0.0263 
     53 CB        -76.0907   20.5789  -75.2256 C.3       4 UNK        -0.1981 
     54 N         -77.6004   22.0614  -76.4659 N.am      4 UNK        -0.4224 
     55 C         -77.9939   22.9415  -77.3965 C.2       3 UNK         0.4895 
     56 O         -77.2239   23.6769  -78.0150 O.2       3 UNK        -0.5091 
     57 CA        -79.5100   23.0574  -77.6374 C.3       3 UNK         0.0250 
     58 CB        -80.0392   21.8338  -78.4037 C.3       3 UNK        -0.1996 
     59 N         -80.3084   23.2677  -76.4198 N.am      3 UNK        -0.4254 
     60 C         -80.0935   24.2473  -75.5317 C.2       2 UNK         0.5004 
     61 O         -79.1183   25.0016  -75.5712 O.2       2 UNK        -0.5226 
     62 CA        -81.1169   24.4360  -74.4060 C.3       2 UNK         0.0269 
     63 CB        -80.8574   23.4649  -73.2406 C.3       2 UNK        -0.1926 
     64 N         -80.9585   25.8176  -73.9696 N.am      2 UNK        -0.4687 
     65 C         -81.7937   26.5686  -73.2496 C.2       1 UNK         0.5165 
     66 O         -82.8386   26.1532  -72.7450 O.2       1 UNK        -0.5079 
     67 H67       -80.3214   29.7870  -76.5735 H         1 UNK         0.0900 
     68 H68       -81.3714   28.7463  -77.5379 H         1 UNK         0.0900 
     69 H69       -81.9523   30.3186  -76.9822 H         1 UNK         0.0900 
     70 H70       -80.1177   28.9859  -74.5206 H         1 UNK         0.2959 
     71 H71       -80.4061   27.9910  -72.6069 H         1 UNK         0.1079 
     72 H72       -82.3954   28.4554  -71.2251 H         1 UNK         0.0837 
     73 H73       -83.3245   28.8853  -72.6367 H         1 UNK         0.0837 
     74 H74       -80.3721   31.6119  -70.3772 H         1 UNK         0.0685 
     75 H75       -81.0885   30.1256  -69.8057 H         1 UNK         0.0685 
     76 H76       -79.6632   28.2213  -69.7061 H         1 UNK         0.1434 
     77 H77       -76.1302   27.9732  -72.1291 H         1 UNK         0.1329 
     78 H78       -78.7078   31.3638  -72.4638 H         1 UNK         0.1335 
     79 H79       -75.8559   29.5197  -73.9824 H         1 UNK         0.0680 
     80 H80       -76.9697   30.8441  -74.1998 H         1 UNK         0.0680 
     81 H81       -73.9455   30.6520  -70.8430 H         1 UNK         0.1032 
     82 H82       -74.3889   29.3221  -71.8721 H         1 UNK         0.1032 
     83 H83       -72.2602   31.4004  -72.5398 H         1 UNK         0.0461 
     84 H84       -70.1440   29.6758  -70.2852 H         1 UNK         0.3453 
     85 H85       -70.8194   31.2014  -70.7936 H         1 UNK         0.3453 
     86 H86       -73.3308   29.1961  -74.1454 H         1 UNK         0.2984 
     87 H87       -72.8527   29.9228  -76.6129 H         1 UNK         0.0554 
     88 H88       -70.9903   29.5092  -78.2179 H         1 UNK         0.0847 
     89 H89       -69.8144   29.6579  -76.9128 H         1 UNK         0.0847 
     90 H90       -70.7889   31.0414  -77.3838 H         1 UNK         0.0847 
     91 H91       -72.8933   27.7294  -76.5262 H         1 UNK         0.3141 
     92 H92       -70.5997   25.2046  -76.1656 H         1 UNK         0.0743 
     93 H93       -72.5961   25.6363  -73.8792 H         1 UNK         0.0784 
     94 H94       -71.9338   24.0812  -74.3828 H         1 UNK         0.0784 
     95 H95       -70.8816   25.3102  -73.6993 H         1 UNK         0.0784 
     96 H96       -73.4557   25.0735  -76.1747 H         1 UNK         0.3213 
     97 H97       -73.9346   25.9567  -79.5849 H         1 UNK         0.0855 
     98 H98       -74.2019   23.2105  -78.2530 H         1 UNK         0.0814 
     99 H99       -73.3126   23.5454  -79.7305 H         1 UNK         0.0814 
    100 H100      -75.0561   23.7474  -79.6996 H         1 UNK         0.0814 
    101 H101      -75.8223   25.0817  -77.6788 H         1 UNK         0.3105 
    102 H102      -76.3996   28.2798  -76.0999 H         1 UNK         0.0547 
    103 H103      -77.7585   28.1487  -78.1906 H         1 UNK         0.0837 
    104 H104      -78.0449   26.4346  -77.9140 H         1 UNK         0.0837 
    105 H105      -78.6908   27.6295  -76.7943 H         1 UNK         0.0837 
    106 H106      -77.4788   25.6681  -75.6327 H         1 UNK         0.3020 
    107 H107      -75.0909   24.6133  -73.2168 H         1 UNK         0.1245 
    108 H108      -77.6057   24.1579  -72.2771 H         1 UNK         0.0781 
    109 H109      -77.8545   25.8004  -72.7845 H         1 UNK         0.0781 
    110 H110      -77.2688   26.7870  -69.1361 H         1 UNK         0.0836 
    111 H111      -78.4815   26.0031  -70.1193 H         1 UNK         0.0836 
    112 H112      -77.4078   23.4216  -74.4370 H         1 UNK         0.3022 
    113 H113      -75.6117   21.7201  -76.9746 H         1 UNK         0.0747 
    114 H114      -76.4279   19.7053  -75.7839 H         1 UNK         0.0793 
    115 H115      -75.0553   20.3951  -74.9348 H         1 UNK         0.0793 
    116 H116      -76.6800   20.6414  -74.3098 H         1 UNK         0.0793 
    117 H117      -78.3013   21.5045  -75.9986 H         1 UNK         0.3047 
    118 H118      -79.6610   23.9360  -78.2685 H         1 UNK         0.0822 
    119 H119      -81.0769   21.9744  -78.7068 H         1 UNK         0.0807 
    120 H120      -79.9853   20.9233  -77.8057 H         1 UNK         0.0807 
    121 H121      -79.4605   21.6617  -79.3126 H         1 UNK         0.0807 
    122 H122      -81.1215   22.6789  -76.3072 H         1 UNK         0.2946 
    123 H123      -82.1243   24.2963  -74.8040 H         1 UNK         0.1144 
    124 H124      -81.5784   23.6087  -72.4359 H         1 UNK         0.0793 
    125 H125      -79.8606   23.5953  -72.8204 H         1 UNK         0.0793 
    126 H126      -80.9430   22.4278  -73.5672 H         1 UNK         0.0793 
    127 H127      -80.1409   26.2526  -74.3826 H         1 UNK         0.2896 
@<TRIPOS>BOND
     1    1    2 1    
     2    1   67 1    
     3    1   68 1    
     4    1   69 1    
     5    2    3 2    
     6    2    4 am   BACKBONE|DICT|INTERRES
     7    4    5 1    
     8    4   70 1    
     9    5    6 1    
    10    5   65 1    
    11    5   71 1    
    12    6    7 1    
    13    6   72 1    
    14    6   73 1    
    15    7    8 1    
    16    8    9 1    
    17    8   74 1    
    18    8   75 1    
    19    9   10 ar   
    20    9   14 ar   
    21   10   11 ar   
    22   10   76 1    
    23   11   12 ar   
    24   11   48 1    
    25   12   13 ar   
    26   12   77 1    
    27   13   14 ar   
    28   13   15 1    
    29   14   78 1    
    30   15   16 1    
    31   15   79 1    
    32   15   80 1    
    33   16   17 1    
    34   17   18 1    
    35   17   81 1    
    36   17   82 1    
    37   18   19 1    
    38   18   22 1    
    39   18   83 1    
    40   19   20 am   BACKBONE|DICT|INTERRES
    41   19   21 2    
    42   20   84 1    
    43   20   85 1    
    44   22   23 am   BACKBONE|DICT|INTERRES
    45   22   86 1    
    46   23   24 2    
    47   23   25 1    
    48   25   26 1    
    49   25   27 1    
    50   25   87 1    
    51   26   88 1    
    52   26   89 1    
    53   26   90 1    
    54   27   28 am   BACKBONE|DICT|INTERRES
    55   27   91 1    
    56   28   29 2    
    57   28   30 1    
    58   30   31 1    
    59   30   32 1    
    60   30   92 1    
    61   31   93 1    
    62   31   94 1    
    63   31   95 1    
    64   32   33 am   BACKBONE|DICT|INTERRES
    65   32   96 1    
    66   33   34 2    
    67   33   35 1    
    68   35   36 1    
    69   35   37 1    
    70   35   97 1    
    71   36   98 1    
    72   36   99 1    
    73   36  100 1    
    74   37   38 am   BACKBONE|DICT|INTERRES
    75   37  101 1    
    76   38   39 2    
    77   38   40 1    
    78   40   41 1    
    79   40   42 1    
    80   40  102 1    
    81   41  103 1    
    82   41  104 1    
    83   41  105 1    
    84   42   43 am   BACKBONE|DICT|INTERRES
    85   42  106 1    
    86   43   44 2    
    87   43   45 1    
    88   45   46 1    
    89   45   49 1    
    90   45  107 1    
    91   46   47 1    
    92   46  108 1    
    93   46  109 1    
    94   47   48 1    
    95   48  110 1    
    96   48  111 1    
    97   49   50 am   BACKBONE|DICT|INTERRES
    98   49  112 1    
    99   50   51 2    
   100   50   52 1    
   101   52   53 1    
   102   52   54 1    
   103   52  113 1    
   104   53  114 1    
   105   53  115 1    
   106   53  116 1    
   107   54   55 am   BACKBONE|DICT|INTERRES
   108   54  117 1    
   109   55   56 2    
   110   55   57 1    
   111   57   58 1    
   112   57   59 1    
   113   57  118 1    
   114   58  119 1    
   115   58  120 1    
   116   58  121 1    
   117   59   60 am   BACKBONE|DICT|INTERRES
   118   59  122 1    
   119   60   61 2    
   120   60   62 1    
   121   62   63 1    
   122   62   64 1    
   123   62  123 1    
   124   63  124 1    
   125   63  125 1    
   126   63  126 1    
   127   64   65 am   BACKBONE|DICT|INTERRES
   128   64  127 1    
   129   65   66 2    
@<TRIPOS>SUBSTRUCTURE
     1 UNK         1 GROUP             0       ****    0 ROOT    
