@<TRIPOS>MOLECULE
3R135
127   129    1
SMALL
USER_CHARGES


@<TRIPOS>ATOM
      1 CA        -85.3840   29.3792  -76.9757 C.3       0 UNK        -0.1998 
      2 C         -84.3540   28.8878  -75.9692 C.2       0 UNK         0.4909 
      3 O         -84.7295   28.4278  -74.8901 O.2       0 UNK        -0.5240 
      4 N         -83.0629   28.9901  -76.3162 N.am      1 UNK        -0.4739 
      5 CA        -81.9103   28.5338  -75.5271 C.3       1 UNK         0.0864 
      6 C6        -81.7939   29.2708  -74.1601 C.3       11 UNK        -0.0881 
      7 S7        -80.0769   29.3605  -73.5527 S.3       11 UNK        -0.2682 
      8 C8        -80.3332   29.2728  -71.7525 C.3       11 UNK         0.0289 
      9 C9        -79.0085   29.0581  -71.0400 C.ar      11 UNK        -0.0687 
     10 C10       -78.6923   27.8091  -70.4969 C.ar      11 UNK        -0.0823 
     11 C11       -77.4358   27.5856  -69.9261 C.ar      11 UNK        -0.0830 
     12 C12       -76.5123   28.6340  -69.8551 C.ar      11 UNK        -0.1021 
     13 C13       -76.8152   29.8820  -70.4050 C.ar      11 UNK        -0.0753 
     14 C14       -78.0709   30.0934  -70.9806 C.ar      11 UNK        -0.0933 
     15 C15       -75.7683   30.9847  -70.4365 C.3       11 UNK         0.0166 
     16 S16       -74.7790   30.9056  -71.9672 S.3       11 UNK        -0.2615 
     17 C17       -73.6371   29.5268  -71.6034 C.3       11 UNK        -0.0865 
     18 CA        -72.2989   29.6507  -72.3805 C.3       10 UNK         0.0862 
     19 C         -71.1874   28.7311  -71.7882 C.2       10 UNK         0.5551 
     20 N         -70.4084   28.0092  -72.5852 N.am      10 UNK        -0.7319 
     21 O         -71.0136   28.6811  -70.5730 O.2       10 UNK        -0.5018 
     22 N         -72.5017   29.4725  -73.8282 N.am      10 UNK        -0.4509 
     23 C         -71.8133   30.1073  -74.7837 C.2       10 UNK         0.4899 
     24 O         -70.9873   30.9947  -74.5618 O.2       10 UNK        -0.4839 
     25 CA        -72.0789   29.6375  -76.2282 C.3       9 UNK         0.0222 
     26 CB        -71.1357   30.2901  -77.2605 C.3       9 UNK        -0.1966 
     27 N         -72.0518   28.1751  -76.3578 N.am      9 UNK        -0.4218 
     28 C         -71.0499   27.3403  -76.0386 C.2       9 UNK         0.5020 
     29 O         -69.9645   27.7158  -75.5940 O.2       9 UNK        -0.5274 
     30 CA        -71.2976   25.8259  -76.1905 C.3       8 UNK         0.0270 
     31 CB        -71.3295   25.1523  -74.8078 C.3       8 UNK        -0.1976 
     32 N         -72.5342   25.4949  -76.9025 N.am      8 UNK        -0.4313 
     33 C         -72.7220   25.6163  -78.2237 C.2       8 UNK         0.5041 
     34 O         -71.8399   25.9507  -79.0149 O.2       8 UNK        -0.5577 
     35 CA        -74.1506   25.3704  -78.7385 C.3       7 UNK         0.0284 
     36 CB        -74.4156   23.8696  -78.9429 C.3       7 UNK        -0.1958 
     37 N         -75.1624   25.9363  -77.8413 N.am      7 UNK        -0.4454 
     38 C         -75.3692   27.2490  -77.6585 C.2       7 UNK         0.5089 
     39 O         -74.7660   28.1302  -78.2695 O.2       7 UNK        -0.5125 
     40 CA        -76.3859   27.6463  -76.5763 C.3       6 UNK         0.0408 
     41 CB        -77.8065   27.7137  -77.1580 C.3       6 UNK        -0.1791 
     42 N         -76.3670   26.7332  -75.4326 N.am      6 UNK        -0.4762 
     43 C         -75.3609   26.6520  -74.5471 C.2       6 UNK         0.5007 
     44 O         -74.3514   27.3562  -74.5853 O.2       6 UNK        -0.5032 
     45 CA        -75.5038   25.5947  -73.4362 C.3       5 UNK         0.0783 
     46 C46       -76.3688   26.1860  -72.3054 C.3       11 UNK        -0.0857 
     47 S47       -76.7132   25.0551  -70.9102 S.3       11 UNK        -0.2512 
     48 C48       -77.0265   26.1823  -69.4950 C.3       11 UNK         0.0225 
     49 N         -76.0211   24.3211  -73.9438 N.am      5 UNK        -0.4615 
     50 C         -75.3988   23.5516  -74.8477 C.2       4 UNK         0.5053 
     51 O         -74.3256   23.8420  -75.3735 O.2       4 UNK        -0.5105 
     52 CA        -76.1439   22.2951  -75.2972 C.3       4 UNK         0.0263 
     53 CB        -76.3008   21.2755  -74.1534 C.3       4 UNK        -0.1981 
     54 N         -77.4387   22.7175  -75.8124 N.am      4 UNK        -0.4224 
     55 C         -78.2425   22.0490  -76.6387 C.2       3 UNK         0.4895 
     56 O         -78.0140   20.9072  -77.0417 O.2       3 UNK        -0.5091 
     57 CA        -79.5123   22.8036  -77.0917 C.3       3 UNK         0.0250 
     58 CB        -80.4761   21.9079  -77.8927 C.3       3 UNK        -0.1996 
     59 N         -80.2569   23.4346  -75.9921 N.am      3 UNK        -0.4254 
     60 C         -79.8907   24.5246  -75.3031 C.2       2 UNK         0.5004 
     61 O         -78.8084   25.1028  -75.4494 O.2       2 UNK        -0.5226 
     62 CA        -80.8757   25.0373  -74.2430 C.3       2 UNK         0.0269 
     63 CB        -80.3172   24.8072  -72.8294 C.3       2 UNK        -0.1926 
     64 N         -81.1329   26.4640  -74.4318 N.am      2 UNK        -0.4687 
     65 C         -81.8508   26.9874  -75.4341 C.2       1 UNK         0.5165 
     66 O         -82.4256   26.2962  -76.2802 O.2       1 UNK        -0.5079 
     67 H67       -86.0449   28.5624  -77.2644 H         1 UNK         0.0900 
     68 H68       -85.9911   30.1699  -76.5356 H         1 UNK         0.0900 
     69 H69       -84.9177   29.7731  -77.8786 H         1 UNK         0.0900 
     70 H70       -82.8340   29.3517  -77.2319 H         1 UNK         0.2959 
     71 H71       -81.0430   28.8126  -76.1279 H         1 UNK         0.1079 
     72 H72       -82.1414   30.3003  -74.2614 H         1 UNK         0.0837 
     73 H73       -82.4455   28.8130  -73.4134 H         1 UNK         0.0837 
     74 H74       -81.0263   28.4636  -71.5170 H         1 UNK         0.0685 
     75 H75       -80.7978   30.1965  -71.4042 H         1 UNK         0.0685 
     76 H76       -79.3965   26.9919  -70.5728 H         1 UNK         0.1434 
     77 H77       -75.5317   28.4596  -69.4340 H         1 UNK         0.1329 
     78 H78       -78.3031   31.0507  -71.4274 H         1 UNK         0.1335 
     79 H79       -76.2579   31.9584  -70.3863 H         1 UNK         0.0680 
     80 H80       -75.1187   30.9272  -69.5618 H         1 UNK         0.0680 
     81 H81       -74.1271   28.5820  -71.8372 H         1 UNK         0.1032 
     82 H82       -73.4562   29.5187  -70.5273 H         1 UNK         0.1032 
     83 H83       -71.9303   30.6639  -72.2098 H         1 UNK         0.0461 
     84 H84       -69.6932   27.4321  -72.1729 H         1 UNK         0.3453 
     85 H85       -70.4785   28.0768  -73.5925 H         1 UNK         0.3453 
     86 H86       -73.1504   28.7379  -74.1017 H         1 UNK         0.2984 
     87 H87       -73.0975   29.9457  -76.4687 H         1 UNK         0.0554 
     88 H88       -71.2272   31.3767  -77.2417 H         1 UNK         0.0847 
     89 H89       -71.3713   29.9632  -78.2733 H         1 UNK         0.0847 
     90 H90       -70.0906   30.0480  -77.0644 H         1 UNK         0.0847 
     91 H91       -72.9179   27.7553  -76.6669 H         1 UNK         0.3141 
     92 H92       -70.4573   25.4141  -76.7533 H         1 UNK         0.0743 
     93 H93       -70.3972   25.3197  -74.2669 H         1 UNK         0.0784 
     94 H94       -72.1394   25.5418  -74.1898 H         1 UNK         0.0784 
     95 H95       -71.4633   24.0737  -74.8940 H         1 UNK         0.0784 
     96 H96       -73.2928   25.1208  -76.3365 H         1 UNK         0.3213 
     97 H97       -74.2439   25.8664  -79.7074 H         1 UNK         0.0855 
     98 H98       -74.3333   23.3084  -78.0120 H         1 UNK         0.0814 
     99 H99       -73.6965   23.4418  -79.6428 H         1 UNK         0.0814 
    100 H100      -75.4097   23.6937  -79.3541 H         1 UNK         0.0814 
    101 H101      -75.6860   25.2892  -77.2714 H         1 UNK         0.3105 
    102 H102      -76.1197   28.6428  -76.2168 H         1 UNK         0.0547 
    103 H103      -78.5272   28.0280  -76.4029 H         1 UNK         0.0837 
    104 H104      -78.1318   26.7486  -77.5484 H         1 UNK         0.0837 
    105 H105      -77.8588   28.4320  -77.9771 H         1 UNK         0.0837 
    106 H106      -77.1815   26.1345  -75.3179 H         1 UNK         0.3020 
    107 H107      -74.5044   25.4032  -73.0390 H         1 UNK         0.1245 
    108 H108      -77.3270   26.5372  -72.6934 H         1 UNK         0.0781 
    109 H109      -75.8549   27.0651  -71.9210 H         1 UNK         0.0781 
    110 H110      -76.1273   26.2227  -68.8785 H         1 UNK         0.0836 
    111 H111      -77.8052   25.7521  -68.8636 H         1 UNK         0.0836 
    112 H112      -76.8915   24.0078  -73.5402 H         1 UNK         0.3022 
    113 H113      -75.5735   21.8357  -76.1074 H         1 UNK         0.0747 
    114 H114      -76.7603   20.3528  -74.5078 H         1 UNK         0.0793 
    115 H115      -75.3301   21.0109  -73.7319 H         1 UNK         0.0793 
    116 H116      -76.9175   21.6621  -73.3413 H         1 UNK         0.0793 
    117 H117      -77.7306   23.6642  -75.5752 H         1 UNK         0.3047 
    118 H118      -79.1736   23.5985  -77.7599 H         1 UNK         0.0822 
    119 H119      -81.3329   22.4738  -78.2593 H         1 UNK         0.0807 
    120 H120      -80.8519   21.0802  -77.2899 H         1 UNK         0.0807 
    121 H121      -79.9808   21.4784  -78.7648 H         1 UNK         0.0807 
    122 H122      -81.1455   23.0088  -75.7706 H         1 UNK         0.2946 
    123 H123      -81.8223   24.4998  -74.3361 H         1 UNK         0.1144 
    124 H124      -79.3831   25.3458  -72.6711 H         1 UNK         0.0793 
    125 H125      -80.1169   23.7494  -72.6540 H         1 UNK         0.0793 
    126 H126      -81.0237   25.1335  -72.0660 H         1 UNK         0.0793 
    127 H127      -80.6410   27.1026  -73.8207 H         1 UNK         0.2896 
@<TRIPOS>BOND
     1    1    2 1    
     2    1   67 1    
     3    1   68 1    
     4    1   69 1    
     5    2    3 2    
     6    2    4 am   BACKBONE|DICT|INTERRES
     7    4    5 1    
     8    4   70 1    
     9    5    6 1    
    10    5   65 1    
    11    5   71 1    
    12    6    7 1    
    13    6   72 1    
    14    6   73 1    
    15    7    8 1    
    16    8    9 1    
    17    8   74 1    
    18    8   75 1    
    19    9   10 ar   
    20    9   14 ar   
    21   10   11 ar   
    22   10   76 1    
    23   11   12 ar   
    24   11   48 1    
    25   12   13 ar   
    26   12   77 1    
    27   13   14 ar   
    28   13   15 1    
    29   14   78 1    
    30   15   16 1    
    31   15   79 1    
    32   15   80 1    
    33   16   17 1    
    34   17   18 1    
    35   17   81 1    
    36   17   82 1    
    37   18   19 1    
    38   18   22 1    
    39   18   83 1    
    40   19   20 am   BACKBONE|DICT|INTERRES
    41   19   21 2    
    42   20   84 1    
    43   20   85 1    
    44   22   23 am   BACKBONE|DICT|INTERRES
    45   22   86 1    
    46   23   24 2    
    47   23   25 1    
    48   25   26 1    
    49   25   27 1    
    50   25   87 1    
    51   26   88 1    
    52   26   89 1    
    53   26   90 1    
    54   27   28 am   BACKBONE|DICT|INTERRES
    55   27   91 1    
    56   28   29 2    
    57   28   30 1    
    58   30   31 1    
    59   30   32 1    
    60   30   92 1    
    61   31   93 1    
    62   31   94 1    
    63   31   95 1    
    64   32   33 am   BACKBONE|DICT|INTERRES
    65   32   96 1    
    66   33   34 2    
    67   33   35 1    
    68   35   36 1    
    69   35   37 1    
    70   35   97 1    
    71   36   98 1    
    72   36   99 1    
    73   36  100 1    
    74   37   38 am   BACKBONE|DICT|INTERRES
    75   37  101 1    
    76   38   39 2    
    77   38   40 1    
    78   40   41 1    
    79   40   42 1    
    80   40  102 1    
    81   41  103 1    
    82   41  104 1    
    83   41  105 1    
    84   42   43 am   BACKBONE|DICT|INTERRES
    85   42  106 1    
    86   43   44 2    
    87   43   45 1    
    88   45   46 1    
    89   45   49 1    
    90   45  107 1    
    91   46   47 1    
    92   46  108 1    
    93   46  109 1    
    94   47   48 1    
    95   48  110 1    
    96   48  111 1    
    97   49   50 am   BACKBONE|DICT|INTERRES
    98   49  112 1    
    99   50   51 2    
   100   50   52 1    
   101   52   53 1    
   102   52   54 1    
   103   52  113 1    
   104   53  114 1    
   105   53  115 1    
   106   53  116 1    
   107   54   55 am   BACKBONE|DICT|INTERRES
   108   54  117 1    
   109   55   56 2    
   110   55   57 1    
   111   57   58 1    
   112   57   59 1    
   113   57  118 1    
   114   58  119 1    
   115   58  120 1    
   116   58  121 1    
   117   59   60 am   BACKBONE|DICT|INTERRES
   118   59  122 1    
   119   60   61 2    
   120   60   62 1    
   121   62   63 1    
   122   62   64 1    
   123   62  123 1    
   124   63  124 1    
   125   63  125 1    
   126   63  126 1    
   127   64   65 am   BACKBONE|DICT|INTERRES
   128   64  127 1    
   129   65   66 2    
@<TRIPOS>SUBSTRUCTURE
     1 UNK         1 GROUP             0       ****    0 ROOT    
