@<TRIPOS>MOLECULE
3R135
127   129    1
SMALL
USER_CHARGES


@<TRIPOS>ATOM
      1 CA        -76.7114   26.3754  -73.3036 C.3       0 UNK        -0.1998 
      2 C         -78.0596   25.9589  -72.7488 C.2       0 UNK         0.4909 
      3 O         -78.9860   25.7124  -73.5216 O.2       0 UNK        -0.5240 
      4 N         -78.1525   25.8686  -71.4145 N.am      1 UNK        -0.4739 
      5 CA        -79.3758   25.6892  -70.6172 C.3       1 UNK         0.0864 
      6 C6        -80.2232   26.9878  -70.5470 C.3       11 UNK        -0.0881 
      7 S7        -79.2693   28.3623  -69.8107 S.3       11 UNK        -0.2682 
      8 C8        -79.9296   29.8125  -70.6882 C.3       11 UNK         0.0289 
      9 C9        -79.4540   29.9002  -72.1325 C.ar      11 UNK        -0.0687 
     10 C10       -80.3320   29.6031  -73.1785 C.ar      11 UNK        -0.0823 
     11 C11       -79.9325   29.7590  -74.5085 C.ar      11 UNK        -0.0830 
     12 C12       -78.6369   30.2032  -74.7885 C.ar      11 UNK        -0.1021 
     13 C13       -77.7368   30.4754  -73.7539 C.ar      11 UNK        -0.0753 
     14 C14       -78.1556   30.3313  -72.4262 C.ar      11 UNK        -0.0933 
     15 C15       -76.3296   30.9580  -74.0831 C.3       11 UNK         0.0166 
     16 S16       -75.1284   29.5878  -74.1151 S.3       11 UNK        -0.2615 
     17 C17       -74.5497   29.5718  -72.3808 C.3       11 UNK        -0.0865 
     18 CA        -73.1043   30.1173  -72.2358 C.3       10 UNK         0.0862 
     19 C         -72.7583   30.4037  -70.7443 C.2       10 UNK         0.5551 
     20 N         -71.7594   29.7588  -70.1534 N.am      10 UNK        -0.7319 
     21 O         -73.4069   31.2350  -70.1141 O.2       10 UNK        -0.5018 
     22 N         -72.1345   29.2523  -72.9284 N.am      10 UNK        -0.4509 
     23 C         -70.9401   29.6438  -73.3910 C.2       10 UNK         0.4899 
     24 O         -70.5237   30.7999  -73.3089 O.2       10 UNK        -0.4839 
     25 CA        -70.0383   28.5715  -74.0396 C.3       9 UNK         0.0222 
     26 CB        -68.7957   28.3169  -73.1691 C.3       9 UNK        -0.1966 
     27 N         -70.7076   27.2897  -74.2968 N.am      9 UNK        -0.4218 
     28 C         -71.6303   27.0864  -75.2460 C.2       9 UNK         0.5020 
     29 O         -72.0169   27.9644  -76.0213 O.2       9 UNK        -0.5274 
     30 CA        -72.2593   25.6812  -75.2832 C.3       8 UNK         0.0270 
     31 CB        -73.2493   25.5148  -74.1191 C.3       8 UNK        -0.1976 
     32 N         -72.9809   25.4689  -76.5352 N.am      8 UNK        -0.4313 
     33 C         -72.4067   25.2136  -77.7188 C.2       8 UNK         0.5041 
     34 O         -71.2222   24.9053  -77.8603 O.2       8 UNK        -0.5577 
     35 CA        -73.3012   25.3880  -78.9555 C.3       7 UNK         0.0284 
     36 CB        -74.1763   24.1463  -79.1928 C.3       7 UNK        -0.1958 
     37 N         -74.1447   26.5725  -78.7860 N.am      7 UNK        -0.4454 
     38 C         -73.7571   27.8246  -79.0667 C.2       7 UNK         0.5089 
     39 O         -72.7302   28.0879  -79.6947 O.2       7 UNK        -0.5125 
     40 CA        -74.6215   28.9896  -78.5346 C.3       6 UNK         0.0408 
     41 CB        -74.9786   29.9968  -79.6476 C.3       6 UNK        -0.1791 
     42 N         -75.8145   28.5873  -77.7742 N.am      6 UNK        -0.4762 
     43 C         -76.9066   27.9606  -78.2362 C.2       6 UNK         0.5007 
     44 O         -77.0724   27.6337  -79.4125 O.2       6 UNK        -0.5032 
     45 CA        -77.9784   27.5915  -77.1940 C.3       5 UNK         0.0783 
     46 C46       -79.3521   28.1796  -77.6000 C.3       11 UNK        -0.0857 
     47 S47       -80.6635   27.8396  -76.3755 S.3       11 UNK        -0.2512 
     48 C48       -80.9185   29.4825  -75.6345 C.3       11 UNK         0.0225 
     49 N         -78.0584   26.1445  -76.9921 N.am      5 UNK        -0.4615 
     50 C         -77.0640   25.3099  -76.6655 C.2       4 UNK         0.5053 
     51 O         -75.8866   25.6550  -76.5367 O.2       4 UNK        -0.5105 
     52 CA        -77.4790   23.8515  -76.4147 C.3       4 UNK         0.0263 
     53 CB        -76.4344   23.0470  -75.6174 C.3       4 UNK        -0.1981 
     54 N         -78.7635   23.8171  -75.7097 N.am      4 UNK        -0.4224 
     55 C         -79.8720   23.2042  -76.1411 C.2       3 UNK         0.4895 
     56 O         -79.9368   22.5605  -77.1902 O.2       3 UNK        -0.5091 
     57 CA        -81.1162   23.3519  -75.2423 C.3       3 UNK         0.0250 
     58 CB        -82.3067   22.4852  -75.7061 C.3       3 UNK        -0.1996 
     59 N         -80.8225   23.1172  -73.8228 N.am      3 UNK        -0.4254 
     60 C         -80.3249   22.0058  -73.2589 C.2       2 UNK         0.5004 
     61 O         -80.0674   20.9771  -73.8865 O.2       2 UNK        -0.5226 
     62 CA        -80.0626   22.0543  -71.7373 C.3       2 UNK         0.0269 
     63 CB        -79.1348   20.9189  -71.2635 C.3       2 UNK        -0.1926 
     64 N         -79.4964   23.3345  -71.2983 N.am      2 UNK        -0.4687 
     65 C         -80.1961   24.4452  -71.0277 C.2       1 UNK         0.5165 
     66 O         -81.4229   24.5067  -71.1266 O.2       1 UNK        -0.5079 
     67 H67       -76.0633   26.7795  -72.5282 H         1 UNK         0.0900 
     68 H68       -76.8442   27.1415  -74.0659 H         1 UNK         0.0900 
     69 H69       -76.2114   25.5229  -73.7550 H         1 UNK         0.0900 
     70 H70       -77.3266   26.0579  -70.8643 H         1 UNK         0.2959 
     71 H71       -79.0411   25.4716  -69.6014 H         1 UNK         0.1079 
     72 H72       -80.5728   27.2625  -71.5431 H         1 UNK         0.0837 
     73 H73       -81.1153   26.8408  -69.9354 H         1 UNK         0.0837 
     74 H74       -81.0195   29.7978  -70.6367 H         1 UNK         0.0685 
     75 H75       -79.6155   30.7119  -70.1566 H         1 UNK         0.0685 
     76 H76       -81.3375   29.2727  -72.9565 H         1 UNK         0.1434 
     77 H77       -78.3287   30.3442  -75.8146 H         1 UNK         0.1329 
     78 H78       -77.4807   30.5671  -71.6161 H         1 UNK         0.1335 
     79 H79       -76.3240   31.4404  -75.0618 H         1 UNK         0.0680 
     80 H80       -76.0129   31.7242  -73.3739 H         1 UNK         0.0680 
     81 H81       -74.6067   28.5522  -71.9988 H         1 UNK         0.1032 
     82 H82       -75.2415   30.1516  -71.7694 H         1 UNK         0.1032 
     83 H83       -73.0797   31.0928  -72.7259 H         1 UNK         0.0461 
     84 H84       -71.2174   29.0806  -70.6631 H         1 UNK         0.3453 
     85 H85       -71.5441   29.9580  -69.1892 H         1 UNK         0.3453 
     86 H86       -72.4030   28.2887  -73.0492 H         1 UNK         0.2984 
     87 H87       -69.7025   28.9744  -74.9975 H         1 UNK         0.0554 
     88 H88       -68.1053   27.6261  -73.6536 H         1 UNK         0.0847 
     89 H89       -69.0601   27.9017  -72.1958 H         1 UNK         0.0847 
     90 H90       -68.2467   29.2424  -72.9888 H         1 UNK         0.0847 
     91 H91       -70.4516   26.5184  -73.6962 H         1 UNK         0.3141 
     92 H92       -71.4693   24.9322  -75.1966 H         1 UNK         0.0743 
     93 H93       -72.7405   25.5486  -73.1552 H         1 UNK         0.0784 
     94 H94       -73.7729   24.5600  -74.1741 H         1 UNK         0.0784 
     95 H95       -73.9960   26.3094  -74.1239 H         1 UNK         0.0784 
     96 H96       -73.9716   25.6958  -76.5219 H         1 UNK         0.3213 
     97 H97       -72.6571   25.5207  -79.8276 H         1 UNK         0.0855 
     98 H98       -73.5571   23.2647  -79.3633 H         1 UNK         0.0814 
     99 H99       -74.8110   24.2717  -80.0701 H         1 UNK         0.0814 
    100 H100      -74.8208   23.9290  -78.3419 H         1 UNK         0.0814 
    101 H101      -74.9901   26.4523  -78.2409 H         1 UNK         0.3105 
    102 H102      -73.9892   29.5130  -77.8155 H         1 UNK         0.0547 
    103 H103      -75.5534   29.5329  -80.4494 H         1 UNK         0.0837 
    104 H104      -74.0777   30.4136  -80.0994 H         1 UNK         0.0837 
    105 H105      -75.5584   30.8328  -79.2569 H         1 UNK         0.0837 
    106 H106      -75.7485   28.7586  -76.7789 H         1 UNK         0.3020 
    107 H107      -77.6906   28.0204  -76.2333 H         1 UNK         0.1245 
    108 H108      -79.6788   27.7575  -78.5526 H         1 UNK         0.0781 
    109 H109      -79.2760   29.2553  -77.7667 H         1 UNK         0.0781 
    110 H110      -81.9400   29.5295  -75.2538 H         1 UNK         0.0836 
    111 H111      -80.8535   30.2609  -76.3959 H         1 UNK         0.0836 
    112 H112      -78.9881   25.7585  -77.0605 H         1 UNK         0.3022 
    113 H113      -77.5704   23.3936  -77.4015 H         1 UNK         0.0747 
    114 H114      -76.7223   21.9978  -75.5497 H         1 UNK         0.0793 
    115 H115      -75.4541   23.0808  -76.0941 H         1 UNK         0.0793 
    116 H116      -76.3192   23.4206  -74.6012 H         1 UNK         0.0793 
    117 H117      -78.8293   24.3902  -74.8690 H         1 UNK         0.3047 
    118 H118      -81.4205   24.3971  -75.3200 H         1 UNK         0.0822 
    119 H119      -83.1787   22.6362  -75.0700 H         1 UNK         0.0807 
    120 H120      -82.0633   21.4223  -75.6955 H         1 UNK         0.0807 
    121 H121      -82.6020   22.7404  -76.7247 H         1 UNK         0.0807 
    122 H122      -80.9753   23.9094  -73.2099 H         1 UNK         0.2946 
    123 H123      -81.0316   21.9125  -71.2526 H         1 UNK         0.1144 
    124 H124      -79.5589   19.9411  -71.4961 H         1 UNK         0.0793 
    125 H125      -78.9846   20.9527  -70.1843 H         1 UNK         0.0793 
    126 H126      -78.1560   20.9729  -71.7417 H         1 UNK         0.0793 
    127 H127      -78.4889   23.3869  -71.2449 H         1 UNK         0.2896 
@<TRIPOS>BOND
     1    1    2 1    
     2    1   67 1    
     3    1   68 1    
     4    1   69 1    
     5    2    3 2    
     6    2    4 am   BACKBONE|DICT|INTERRES
     7    4    5 1    
     8    4   70 1    
     9    5    6 1    
    10    5   65 1    
    11    5   71 1    
    12    6    7 1    
    13    6   72 1    
    14    6   73 1    
    15    7    8 1    
    16    8    9 1    
    17    8   74 1    
    18    8   75 1    
    19    9   10 ar   
    20    9   14 ar   
    21   10   11 ar   
    22   10   76 1    
    23   11   12 ar   
    24   11   48 1    
    25   12   13 ar   
    26   12   77 1    
    27   13   14 ar   
    28   13   15 1    
    29   14   78 1    
    30   15   16 1    
    31   15   79 1    
    32   15   80 1    
    33   16   17 1    
    34   17   18 1    
    35   17   81 1    
    36   17   82 1    
    37   18   19 1    
    38   18   22 1    
    39   18   83 1    
    40   19   20 am   BACKBONE|DICT|INTERRES
    41   19   21 2    
    42   20   84 1    
    43   20   85 1    
    44   22   23 am   BACKBONE|DICT|INTERRES
    45   22   86 1    
    46   23   24 2    
    47   23   25 1    
    48   25   26 1    
    49   25   27 1    
    50   25   87 1    
    51   26   88 1    
    52   26   89 1    
    53   26   90 1    
    54   27   28 am   BACKBONE|DICT|INTERRES
    55   27   91 1    
    56   28   29 2    
    57   28   30 1    
    58   30   31 1    
    59   30   32 1    
    60   30   92 1    
    61   31   93 1    
    62   31   94 1    
    63   31   95 1    
    64   32   33 am   BACKBONE|DICT|INTERRES
    65   32   96 1    
    66   33   34 2    
    67   33   35 1    
    68   35   36 1    
    69   35   37 1    
    70   35   97 1    
    71   36   98 1    
    72   36   99 1    
    73   36  100 1    
    74   37   38 am   BACKBONE|DICT|INTERRES
    75   37  101 1    
    76   38   39 2    
    77   38   40 1    
    78   40   41 1    
    79   40   42 1    
    80   40  102 1    
    81   41  103 1    
    82   41  104 1    
    83   41  105 1    
    84   42   43 am   BACKBONE|DICT|INTERRES
    85   42  106 1    
    86   43   44 2    
    87   43   45 1    
    88   45   46 1    
    89   45   49 1    
    90   45  107 1    
    91   46   47 1    
    92   46  108 1    
    93   46  109 1    
    94   47   48 1    
    95   48  110 1    
    96   48  111 1    
    97   49   50 am   BACKBONE|DICT|INTERRES
    98   49  112 1    
    99   50   51 2    
   100   50   52 1    
   101   52   53 1    
   102   52   54 1    
   103   52  113 1    
   104   53  114 1    
   105   53  115 1    
   106   53  116 1    
   107   54   55 am   BACKBONE|DICT|INTERRES
   108   54  117 1    
   109   55   56 2    
   110   55   57 1    
   111   57   58 1    
   112   57   59 1    
   113   57  118 1    
   114   58  119 1    
   115   58  120 1    
   116   58  121 1    
   117   59   60 am   BACKBONE|DICT|INTERRES
   118   59  122 1    
   119   60   61 2    
   120   60   62 1    
   121   62   63 1    
   122   62   64 1    
   123   62  123 1    
   124   63  124 1    
   125   63  125 1    
   126   63  126 1    
   127   64   65 am   BACKBONE|DICT|INTERRES
   128   64  127 1    
   129   65   66 2    
@<TRIPOS>SUBSTRUCTURE
     1 UNK         1 GROUP             0       ****    0 ROOT    
