@<TRIPOS>MOLECULE
3R135
127   129    1
SMALL
USER_CHARGES


@<TRIPOS>ATOM
      1 CA        -82.5478   27.2398  -72.1153 C.3       0 UNK        -0.1998 
      2 C         -82.0336   28.1128  -73.2501 C.2       0 UNK         0.4909 
      3 O         -82.7394   29.0162  -73.6995 O.2       0 UNK        -0.5240 
      4 N         -80.8116   27.8458  -73.7184 N.am      1 UNK        -0.4739 
      5 CA        -80.1543   28.5202  -74.8359 C.3       1 UNK         0.0864 
      6 C6        -79.6210   29.9359  -74.4513 C.3       11 UNK        -0.0881 
      7 S7        -77.9619   30.0025  -73.6886 S.3       11 UNK        -0.2682 
      8 C8        -78.3094   29.6785  -71.9357 C.3       11 UNK         0.0289 
      9 C9        -77.1997   28.8272  -71.3395 C.ar      11 UNK        -0.0687 
     10 C10       -77.3717   27.4474  -71.1930 C.ar      11 UNK        -0.0823 
     11 C11       -76.3381   26.6536  -70.6854 C.ar      11 UNK        -0.0830 
     12 C12       -75.1291   27.2523  -70.3171 C.ar      11 UNK        -0.1021 
     13 C13       -74.9447   28.6307  -70.4616 C.ar      11 UNK        -0.0753 
     14 C14       -75.9870   29.4143  -70.9660 C.ar      11 UNK        -0.0933 
     15 C15       -73.6135   29.2657  -70.0901 C.3       11 UNK         0.0166 
     16 S16       -72.4703   29.2407  -71.5074 S.3       11 UNK        -0.2615 
     17 C17       -72.0571   31.0102  -71.6908 C.3       11 UNK        -0.0865 
     18 CA        -73.1621   31.8403  -72.3963 C.3       10 UNK         0.0862 
     19 C         -72.7226   33.3242  -72.5283 C.2       10 UNK         0.5551 
     20 N         -73.0422   34.1557  -71.5462 N.am      10 UNK        -0.7319 
     21 O         -72.0553   33.7131  -73.4853 O.2       10 UNK        -0.5018 
     22 N         -73.5538   31.2427  -73.6801 N.am      10 UNK        -0.4509 
     23 C         -74.5952   31.6209  -74.4316 C.2       10 UNK         0.4899 
     24 O         -75.3680   32.5244  -74.1092 O.2       10 UNK        -0.4839 
     25 CA        -74.8184   30.8875  -75.7733 C.3       9 UNK         0.0222 
     26 CB        -75.0689   31.8880  -76.9165 C.3       9 UNK        -0.1966 
     27 N         -73.7141   30.0001  -76.1582 N.am      9 UNK        -0.4218 
     28 C         -73.5237   28.7562  -75.7002 C.2       9 UNK         0.5020 
     29 O         -74.2734   28.1958  -74.8995 O.2       9 UNK        -0.5274 
     30 CA        -72.2363   28.0615  -76.1793 C.3       8 UNK         0.0270 
     31 CB        -71.0090   28.6549  -75.4635 C.3       8 UNK        -0.1976 
     32 N         -72.2632   26.6191  -75.9351 N.am      8 UNK        -0.4313 
     33 C         -73.0019   25.7337  -76.6140 C.2       8 UNK         0.5041 
     34 O         -73.6804   26.0242  -77.6016 O.2       8 UNK        -0.5577 
     35 CA        -72.9546   24.2782  -76.1209 C.3       7 UNK         0.0284 
     36 CB        -72.7407   24.1553  -74.5943 C.3       7 UNK        -0.1958 
     37 N         -74.1886   23.5964  -76.5009 N.am      7 UNK        -0.4454 
     38 C         -74.3344   22.2746  -76.6489 C.2       7 UNK         0.5089 
     39 O         -73.4058   21.4664  -76.5830 O.2       7 UNK        -0.5125 
     40 CA        -75.7818   21.7884  -76.8501 C.3       6 UNK         0.0408 
     41 CB        -75.9263   20.2522  -76.8665 C.3       6 UNK        -0.1791 
     42 N         -76.6697   22.4074  -75.8595 N.am      6 UNK        -0.4762 
     43 C         -76.6307   22.2736  -74.5229 C.2       6 UNK         0.5007 
     44 O         -75.9435   21.4405  -73.9312 O.2       6 UNK        -0.5032 
     45 CA        -77.5052   23.2526  -73.7085 C.3       5 UNK         0.0783 
     46 C46       -76.7037   24.5129  -73.2908 C.3       11 UNK        -0.0857 
     47 S47       -75.6452   24.2219  -71.8335 S.3       11 UNK        -0.2512 
     48 C48       -76.5209   25.1496  -70.5326 C.3       11 UNK         0.0225 
     49 N         -78.7219   23.6283  -74.4315 N.am      5 UNK        -0.4615 
     50 C         -79.7590   22.8136  -74.6647 C.2       4 UNK         0.5053 
     51 O         -79.8483   21.6688  -74.2212 O.2       4 UNK        -0.5105 
     52 CA        -80.8730   23.3679  -75.5656 C.3       4 UNK         0.0263 
     53 CB        -81.8388   24.2535  -74.7616 C.3       4 UNK        -0.1981 
     54 N         -80.3268   24.1250  -76.6951 N.am      4 UNK        -0.4224 
     55 C         -79.7590   23.5659  -77.7740 C.2       3 UNK         0.4895 
     56 O         -79.6863   22.3509  -77.9579 O.2       3 UNK        -0.5091 
     57 CA        -79.1682   24.5161  -78.8299 C.3       3 UNK         0.0250 
     58 CB        -80.2129   24.8327  -79.9121 C.3       3 UNK        -0.1996 
     59 N         -78.6590   25.7689  -78.2663 N.am      3 UNK        -0.4254 
     60 C         -77.5433   25.8715  -77.5306 C.2       2 UNK         0.5004 
     61 O         -76.8238   24.9187  -77.2323 O.2       2 UNK        -0.5226 
     62 CA        -77.2051   27.2730  -77.0004 C.3       2 UNK         0.0269 
     63 CB        -76.5614   28.1257  -78.1056 C.3       2 UNK        -0.1926 
     64 N         -78.3563   27.9901  -76.4361 N.am      2 UNK        -0.4687 
     65 C         -79.1021   27.5490  -75.4128 C.2       1 UNK         0.5165 
     66 O         -78.9830   26.4214  -74.9213 O.2       1 UNK        -0.5079 
     67 H67       -82.7934   27.8551  -71.2502 H         1 UNK         0.0900 
     68 H68       -81.8114   26.4983  -71.8056 H         1 UNK         0.0900 
     69 H69       -83.4492   26.7127  -72.4268 H         1 UNK         0.0900 
     70 H70       -80.2834   27.0547  -73.3719 H         1 UNK         0.2959 
     71 H71       -80.9046   28.6439  -75.6203 H         1 UNK         0.1079 
     72 H72       -80.3303   30.4580  -73.8073 H         1 UNK         0.0837 
     73 H73       -79.5671   30.5452  -75.3546 H         1 UNK         0.0837 
     74 H74       -78.3893   30.6261  -71.4013 H         1 UNK         0.0685 
     75 H75       -79.2715   29.1779  -71.8238 H         1 UNK         0.0685 
     76 H76       -78.3055   26.9904  -71.4893 H         1 UNK         0.1434 
     77 H77       -74.3231   26.6401  -69.9356 H         1 UNK         0.1329 
     78 H78       -75.8497   30.4785  -71.0946 H         1 UNK         0.1335 
     79 H79       -73.7729   30.2861  -69.7390 H         1 UNK         0.0680 
     80 H80       -73.1587   28.7261  -69.2581 H         1 UNK         0.0680 
     81 H81       -71.1236   31.0729  -72.2538 H         1 UNK         0.1032 
     82 H82       -71.8357   31.4224  -70.7043 H         1 UNK         0.1032 
     83 H83       -74.0500   31.8182  -71.7628 H         1 UNK         0.0461 
     84 H84       -73.5809   33.8457  -70.7524 H         1 UNK         0.3453 
     85 H85       -72.7502   35.1188  -71.6059 H         1 UNK         0.3453 
     86 H86       -72.9872   30.4725  -73.9983 H         1 UNK         0.2984 
     87 H87       -75.7195   30.2832  -75.6552 H         1 UNK         0.0554 
     88 H88       -75.2481   31.3789  -77.8635 H         1 UNK         0.0847 
     89 H89       -74.2238   32.5639  -77.0526 H         1 UNK         0.0847 
     90 H90       -75.9472   32.5025  -76.7142 H         1 UNK         0.0847 
     91 H91       -73.0301   30.3910  -76.7910 H         1 UNK         0.3141 
     92 H92       -72.1348   28.2263  -77.2543 H         1 UNK         0.0743 
     93 H93       -70.9103   29.7232  -75.6600 H         1 UNK         0.0784 
     94 H94       -71.0718   28.5276  -74.3816 H         1 UNK         0.0784 
     95 H95       -70.0863   28.1831  -75.8024 H         1 UNK         0.0784 
     96 H96       -71.7735   26.2971  -75.1137 H         1 UNK         0.3213 
     97 H97       -72.1189   23.7987  -76.6351 H         1 UNK         0.0855 
     98 H98       -71.7512   24.5030  -74.2969 H         1 UNK         0.0814 
     99 H99       -72.8186   23.1203  -74.2606 H         1 UNK         0.0814 
    100 H100      -73.4796   24.7343  -74.0384 H         1 UNK         0.0814 
    101 H101      -74.9893   24.2000  -76.6752 H         1 UNK         0.3105 
    102 H102      -76.1033   22.1604  -77.8241 H         1 UNK         0.0547 
    103 H103      -75.3572   19.8196  -77.6899 H         1 UNK         0.0837 
    104 H104      -75.5596   19.7952  -75.9473 H         1 UNK         0.0837 
    105 H105      -76.9665   19.9547  -76.9986 H         1 UNK         0.0837 
    106 H106      -77.2214   23.1760  -76.2251 H         1 UNK         0.3020 
    107 H107      -77.8222   22.7256  -72.8053 H         1 UNK         0.1245 
    108 H108      -77.3878   25.3273  -73.0548 H         1 UNK         0.0781 
    109 H109      -76.0894   24.8884  -74.1122 H         1 UNK         0.0781 
    110 H110      -76.1354   24.8387  -69.5605 H         1 UNK         0.0836 
    111 H111      -77.5783   24.8800  -70.5390 H         1 UNK         0.0836 
    112 H112      -78.7608   24.5838  -74.7792 H         1 UNK         0.3022 
    113 H113      -81.4396   22.5205  -75.9582 H         1 UNK         0.0747 
    114 H114      -82.6533   24.6220  -75.3853 H         1 UNK         0.0793 
    115 H115      -82.2879   23.6926  -73.9407 H         1 UNK         0.0793 
    116 H116      -81.3327   25.1142  -74.3268 H         1 UNK         0.0793 
    117 H117      -80.3102   25.1304  -76.6073 H         1 UNK         0.3047 
    118 H118      -78.3331   23.9961  -79.3049 H         1 UNK         0.0822 
    119 H119      -79.7851   25.4378  -80.7118 H         1 UNK         0.0807 
    120 H120      -81.0697   25.3706  -79.5042 H         1 UNK         0.0807 
    121 H121      -80.5908   23.9168  -80.3689 H         1 UNK         0.0807 
    122 H122      -79.1885   26.6081  -78.4538 H         1 UNK         0.2946 
    123 H123      -76.4739   27.1450  -76.1981 H         1 UNK         0.1144 
    124 H124      -75.6908   27.6221  -78.5280 H         1 UNK         0.0793 
    125 H125      -76.2186   29.0834  -77.7178 H         1 UNK         0.0793 
    126 H126      -77.2538   28.3234  -78.9245 H         1 UNK         0.0793 
    127 H127      -78.5124   28.9268  -76.7789 H         1 UNK         0.2896 
@<TRIPOS>BOND
     1    1    2 1    
     2    1   67 1    
     3    1   68 1    
     4    1   69 1    
     5    2    3 2    
     6    2    4 am   BACKBONE|DICT|INTERRES
     7    4    5 1    
     8    4   70 1    
     9    5    6 1    
    10    5   65 1    
    11    5   71 1    
    12    6    7 1    
    13    6   72 1    
    14    6   73 1    
    15    7    8 1    
    16    8    9 1    
    17    8   74 1    
    18    8   75 1    
    19    9   10 ar   
    20    9   14 ar   
    21   10   11 ar   
    22   10   76 1    
    23   11   12 ar   
    24   11   48 1    
    25   12   13 ar   
    26   12   77 1    
    27   13   14 ar   
    28   13   15 1    
    29   14   78 1    
    30   15   16 1    
    31   15   79 1    
    32   15   80 1    
    33   16   17 1    
    34   17   18 1    
    35   17   81 1    
    36   17   82 1    
    37   18   19 1    
    38   18   22 1    
    39   18   83 1    
    40   19   20 am   BACKBONE|DICT|INTERRES
    41   19   21 2    
    42   20   84 1    
    43   20   85 1    
    44   22   23 am   BACKBONE|DICT|INTERRES
    45   22   86 1    
    46   23   24 2    
    47   23   25 1    
    48   25   26 1    
    49   25   27 1    
    50   25   87 1    
    51   26   88 1    
    52   26   89 1    
    53   26   90 1    
    54   27   28 am   BACKBONE|DICT|INTERRES
    55   27   91 1    
    56   28   29 2    
    57   28   30 1    
    58   30   31 1    
    59   30   32 1    
    60   30   92 1    
    61   31   93 1    
    62   31   94 1    
    63   31   95 1    
    64   32   33 am   BACKBONE|DICT|INTERRES
    65   32   96 1    
    66   33   34 2    
    67   33   35 1    
    68   35   36 1    
    69   35   37 1    
    70   35   97 1    
    71   36   98 1    
    72   36   99 1    
    73   36  100 1    
    74   37   38 am   BACKBONE|DICT|INTERRES
    75   37  101 1    
    76   38   39 2    
    77   38   40 1    
    78   40   41 1    
    79   40   42 1    
    80   40  102 1    
    81   41  103 1    
    82   41  104 1    
    83   41  105 1    
    84   42   43 am   BACKBONE|DICT|INTERRES
    85   42  106 1    
    86   43   44 2    
    87   43   45 1    
    88   45   46 1    
    89   45   49 1    
    90   45  107 1    
    91   46   47 1    
    92   46  108 1    
    93   46  109 1    
    94   47   48 1    
    95   48  110 1    
    96   48  111 1    
    97   49   50 am   BACKBONE|DICT|INTERRES
    98   49  112 1    
    99   50   51 2    
   100   50   52 1    
   101   52   53 1    
   102   52   54 1    
   103   52  113 1    
   104   53  114 1    
   105   53  115 1    
   106   53  116 1    
   107   54   55 am   BACKBONE|DICT|INTERRES
   108   54  117 1    
   109   55   56 2    
   110   55   57 1    
   111   57   58 1    
   112   57   59 1    
   113   57  118 1    
   114   58  119 1    
   115   58  120 1    
   116   58  121 1    
   117   59   60 am   BACKBONE|DICT|INTERRES
   118   59  122 1    
   119   60   61 2    
   120   60   62 1    
   121   62   63 1    
   122   62   64 1    
   123   62  123 1    
   124   63  124 1    
   125   63  125 1    
   126   63  126 1    
   127   64   65 am   BACKBONE|DICT|INTERRES
   128   64  127 1    
   129   65   66 2    
@<TRIPOS>SUBSTRUCTURE
     1 UNK         1 GROUP             0       ****    0 ROOT    
