@<TRIPOS>MOLECULE
3R135
127   129    1
SMALL
USER_CHARGES


@<TRIPOS>ATOM
      1 CA        -81.0521   24.1923  -71.8653 C.3       0 UNK        -0.1998 
      2 C         -80.9145   25.1655  -73.0250 C.2       0 UNK         0.4909 
      3 O         -80.0035   25.0213  -73.8426 O.2       0 UNK        -0.5240 
      4 N         -81.8216   26.1500  -73.1011 N.am      1 UNK        -0.4739 
      5 CA        -81.8618   27.2174  -74.1147 C.3       1 UNK         0.0864 
      6 C6        -80.6998   28.2359  -73.9567 C.3       11 UNK        -0.0881 
      7 S7        -80.8678   29.2091  -72.4263 S.3       11 UNK        -0.2682 
      8 C8        -79.3171   30.1749  -72.4564 C.3       11 UNK         0.0289 
      9 C9        -78.1135   29.5521  -71.7423 C.ar      11 UNK        -0.0687 
     10 C10       -78.1738   28.3353  -71.0465 C.ar      11 UNK        -0.0823 
     11 C11       -77.0537   27.8455  -70.3664 C.ar      11 UNK        -0.0830 
     12 C12       -75.8662   28.5800  -70.3766 C.ar      11 UNK        -0.1021 
     13 C13       -75.7837   29.7867  -71.0742 C.ar      11 UNK        -0.0753 
     14 C14       -76.9076   30.2622  -71.7563 C.ar      11 UNK        -0.0933 
     15 C15       -74.4879   30.5843  -71.0686 C.3       11 UNK         0.0166 
     16 S16       -73.1628   29.7017  -71.9449 S.3       11 UNK        -0.2615 
     17 C17       -71.8608   30.9810  -71.9950 C.3       11 UNK        -0.0865 
     18 CA        -71.8343   31.7353  -73.3489 C.3       10 UNK         0.0862 
     19 C         -70.7422   32.8384  -73.3490 C.2       10 UNK         0.5551 
     20 N         -71.0851   34.0481  -72.9279 N.am      10 UNK        -0.7319 
     21 O         -69.5832   32.5978  -73.6820 O.2       10 UNK        -0.5018 
     22 N         -71.6937   30.7976  -74.4685 N.am      10 UNK        -0.4509 
     23 C         -71.9006   31.0737  -75.7581 C.2       10 UNK         0.4899 
     24 O         -72.2260   32.1867  -76.1732 O.2       10 UNK        -0.4839 
     25 CA        -71.7763   29.9131  -76.7641 C.3       9 UNK         0.0222 
     26 CB        -70.4935   30.0403  -77.6098 C.3       9 UNK        -0.1966 
     27 N         -71.9191   28.5639  -76.1899 N.am      9 UNK        -0.4218 
     28 C         -71.0695   27.8834  -75.4009 C.2       9 UNK         0.5020 
     29 O         -70.0154   28.3559  -74.9754 O.2       9 UNK        -0.5274 
     30 CA        -71.4540   26.4487  -74.9781 C.3       8 UNK         0.0270 
     31 CB        -71.7372   26.3879  -73.4680 C.3       8 UNK        -0.1976 
     32 N         -72.6052   25.9028  -75.7025 N.am      8 UNK        -0.4313 
     33 C         -72.5929   25.5481  -76.9969 C.2       8 UNK         0.5041 
     34 O         -71.5687   25.5232  -77.6807 O.2       8 UNK        -0.5577 
     35 CA        -73.9384   25.1963  -77.6649 C.3       7 UNK         0.0284 
     36 CB        -74.0535   23.6753  -77.8594 C.3       7 UNK        -0.1958 
     37 N         -75.1297   25.6823  -76.9581 N.am      7 UNK        -0.4454 
     38 C         -75.3913   26.9559  -76.6278 C.2       7 UNK         0.5089 
     39 O         -74.6750   27.9036  -76.9526 O.2       7 UNK        -0.5125 
     40 CA        -76.6167   27.2156  -75.7296 C.3       6 UNK         0.0408 
     41 CB        -77.8279   27.6077  -76.5879 C.3       6 UNK        -0.1791 
     42 N         -76.9742   26.1009  -74.8389 N.am      6 UNK        -0.4762 
     43 C         -76.1560   25.5346  -73.9337 C.2       6 UNK         0.5007 
     44 O         -74.9809   25.8693  -73.7802 O.2       6 UNK        -0.5032 
     45 CA        -76.7185   24.3595  -73.1106 C.3       5 UNK         0.0783 
     46 C46       -77.4193   24.8297  -71.8142 C.3       11 UNK        -0.0857 
     47 S47       -76.2534   25.1912  -70.4631 S.3       11 UNK        -0.2512 
     48 C48       -77.1232   26.5350  -69.5962 C.3       11 UNK         0.0225 
     49 N         -77.6273   23.5569  -73.9305 N.am      5 UNK        -0.4615 
     50 C         -77.2828   22.4335  -74.5670 C.2       4 UNK         0.5053 
     51 O         -76.1694   21.9126  -74.4912 O.2       4 UNK        -0.5105 
     52 CA        -78.3601   21.7795  -75.4490 C.3       4 UNK         0.0263 
     53 CB        -79.3989   21.0473  -74.5841 C.3       4 UNK        -0.1981 
     54 N         -79.0529   22.6863  -76.3717 N.am      4 UNK        -0.4224 
     55 C         -78.4864   23.5376  -77.2364 C.2       3 UNK         0.4895 
     56 O         -77.2829   23.7878  -77.2648 O.2       3 UNK        -0.5091 
     57 CA        -79.3988   24.2226  -78.2701 C.3       3 UNK         0.0250 
     58 CB        -79.5782   23.3290  -79.5127 C.3       3 UNK        -0.1996 
     59 N         -80.6926   24.6993  -77.7606 N.am      3 UNK        -0.4254 
     60 C         -81.7447   23.9968  -77.3203 C.2       2 UNK         0.5004 
     61 O         -81.7498   22.7707  -77.1941 O.2       2 UNK        -0.5226 
     62 CA        -82.9862   24.8195  -76.9267 C.3       2 UNK         0.0269 
     63 CB        -84.2424   23.9439  -76.7604 C.3       2 UNK        -0.1926 
     64 N         -82.7636   25.5625  -75.6862 N.am      2 UNK        -0.4687 
     65 C         -82.0033   26.6590  -75.5511 C.2       1 UNK         0.5165 
     66 O         -81.4347   27.2052  -76.4994 O.2       1 UNK        -0.5079 
     67 H67       -82.0902   24.0940  -71.5487 H         1 UNK         0.0900 
     68 H68       -80.6936   23.2041  -72.1505 H         1 UNK         0.0900 
     69 H69       -80.4656   24.5368  -71.0145 H         1 UNK         0.0900 
     70 H70       -82.5402   26.2081  -72.3925 H         1 UNK         0.2959 
     71 H71       -82.7937   27.7603  -73.9469 H         1 UNK         0.1079 
     72 H72       -80.6804   28.9450  -74.7864 H         1 UNK         0.0837 
     73 H73       -79.7341   27.7287  -73.9524 H         1 UNK         0.0837 
     74 H74       -79.0498   30.3934  -73.4914 H         1 UNK         0.0685 
     75 H75       -79.5239   31.1375  -71.9867 H         1 UNK         0.0685 
     76 H76       -79.0910   27.7656  -71.0159 H         1 UNK         0.1434 
     77 H77       -74.9991   28.2068  -69.8483 H         1 UNK         0.1329 
     78 H78       -76.8501   31.2026  -72.2876 H         1 UNK         0.1335 
     79 H79       -74.6356   31.5605  -71.5333 H         1 UNK         0.0680 
     80 H80       -74.1803   30.7707  -70.0386 H         1 UNK         0.0680 
     81 H81       -72.0050   31.6772  -71.1665 H         1 UNK         0.1032 
     82 H82       -70.9008   30.4936  -71.8133 H         1 UNK         0.1032 
     83 H83       -72.8012   32.2278  -73.4723 H         1 UNK         0.0461 
     84 H84       -72.0305   34.2545  -72.6449 H         1 UNK         0.3453 
     85 H85       -70.3866   34.7748  -72.9045 H         1 UNK         0.3453 
     86 H86       -71.3573   29.8732  -74.2356 H         1 UNK         0.2984 
     87 H87       -72.6224   30.0171  -77.4450 H         1 UNK         0.0554 
     88 H88       -70.4739   30.9913  -78.1436 H         1 UNK         0.0847 
     89 H89       -70.4292   29.2484  -78.3561 H         1 UNK         0.0847 
     90 H90       -69.5932   29.9992  -76.9962 H         1 UNK         0.0847 
     91 H91       -72.8002   28.1133  -76.4246 H         1 UNK         0.3141 
     92 H92       -70.5913   25.8125  -75.1862 H         1 UNK         0.0743 
     93 H93       -72.5920   27.0073  -73.1950 H         1 UNK         0.0784 
     94 H94       -71.9472   25.3688  -73.1431 H         1 UNK         0.0784 
     95 H95       -70.8816   26.7421  -72.8914 H         1 UNK         0.0784 
     96 H96       -73.4864   25.8826  -75.1963 H         1 UNK         0.3213 
     97 H97       -73.9339   25.6679  -78.6496 H         1 UNK         0.0855 
     98 H98       -74.1621   23.1549  -76.9067 H         1 UNK         0.0814 
     99 H99       -73.1692   23.2720  -78.3551 H         1 UNK         0.0814 
    100 H100      -74.9117   23.4194  -78.4807 H         1 UNK         0.0814 
    101 H101      -75.8268   24.9799  -76.7244 H         1 UNK         0.3105 
    102 H102      -76.3677   28.0649  -75.0899 H         1 UNK         0.0547 
    103 H103      -77.5780   28.4226  -77.2688 H         1 UNK         0.0837 
    104 H104      -78.1780   26.7745  -77.1936 H         1 UNK         0.0837 
    105 H105      -78.6602   27.9503  -75.9774 H         1 UNK         0.0837 
    106 H106      -77.9213   25.7528  -74.9020 H         1 UNK         0.3020 
    107 H107      -75.8652   23.7405  -72.8227 H         1 UNK         0.1245 
    108 H108      -78.0758   24.0414  -71.4433 H         1 UNK         0.0781 
    109 H109      -78.0630   25.6883  -72.0075 H         1 UNK         0.0781 
    110 H110      -76.6680   26.6716  -68.6142 H         1 UNK         0.0836 
    111 H111      -78.1580   26.2419  -69.4118 H         1 UNK         0.0836 
    112 H112      -78.5694   23.9283  -74.0429 H         1 UNK         0.3022 
    113 H113      -77.8546   21.0351  -76.0674 H         1 UNK         0.0747 
    114 H114      -80.0757   20.4524  -75.1978 H         1 UNK         0.0793 
    115 H115      -78.9168   20.3664  -73.8812 H         1 UNK         0.0793 
    116 H116      -80.0027   21.7456  -74.0040 H         1 UNK         0.0793 
    117 H117      -80.0591   22.5643  -76.4616 H         1 UNK         0.3047 
    118 H118      -78.8707   25.1161  -78.6037 H         1 UNK         0.0822 
    119 H119      -80.1495   23.8385  -80.2887 H         1 UNK         0.0807 
    120 H120      -80.0906   22.3959  -79.2766 H         1 UNK         0.0807 
    121 H121      -78.6113   23.0652  -79.9437 H         1 UNK         0.0807 
    122 H122      -80.7832   25.7092  -77.6989 H         1 UNK         0.2946 
    123 H123      -83.1792   25.5299  -77.7343 H         1 UNK         0.1144 
    124 H124      -85.1246   24.5505  -76.5550 H         1 UNK         0.0793 
    125 H125      -84.1321   23.2256  -75.9469 H         1 UNK         0.0793 
    126 H126      -84.4457   23.3771  -77.6701 H         1 UNK         0.0793 
    127 H127      -83.1580   25.1619  -74.8473 H         1 UNK         0.2896 
@<TRIPOS>BOND
     1    1    2 1    
     2    1   67 1    
     3    1   68 1    
     4    1   69 1    
     5    2    3 2    
     6    2    4 am   BACKBONE|DICT|INTERRES
     7    4    5 1    
     8    4   70 1    
     9    5    6 1    
    10    5   65 1    
    11    5   71 1    
    12    6    7 1    
    13    6   72 1    
    14    6   73 1    
    15    7    8 1    
    16    8    9 1    
    17    8   74 1    
    18    8   75 1    
    19    9   10 ar   
    20    9   14 ar   
    21   10   11 ar   
    22   10   76 1    
    23   11   12 ar   
    24   11   48 1    
    25   12   13 ar   
    26   12   77 1    
    27   13   14 ar   
    28   13   15 1    
    29   14   78 1    
    30   15   16 1    
    31   15   79 1    
    32   15   80 1    
    33   16   17 1    
    34   17   18 1    
    35   17   81 1    
    36   17   82 1    
    37   18   19 1    
    38   18   22 1    
    39   18   83 1    
    40   19   20 am   BACKBONE|DICT|INTERRES
    41   19   21 2    
    42   20   84 1    
    43   20   85 1    
    44   22   23 am   BACKBONE|DICT|INTERRES
    45   22   86 1    
    46   23   24 2    
    47   23   25 1    
    48   25   26 1    
    49   25   27 1    
    50   25   87 1    
    51   26   88 1    
    52   26   89 1    
    53   26   90 1    
    54   27   28 am   BACKBONE|DICT|INTERRES
    55   27   91 1    
    56   28   29 2    
    57   28   30 1    
    58   30   31 1    
    59   30   32 1    
    60   30   92 1    
    61   31   93 1    
    62   31   94 1    
    63   31   95 1    
    64   32   33 am   BACKBONE|DICT|INTERRES
    65   32   96 1    
    66   33   34 2    
    67   33   35 1    
    68   35   36 1    
    69   35   37 1    
    70   35   97 1    
    71   36   98 1    
    72   36   99 1    
    73   36  100 1    
    74   37   38 am   BACKBONE|DICT|INTERRES
    75   37  101 1    
    76   38   39 2    
    77   38   40 1    
    78   40   41 1    
    79   40   42 1    
    80   40  102 1    
    81   41  103 1    
    82   41  104 1    
    83   41  105 1    
    84   42   43 am   BACKBONE|DICT|INTERRES
    85   42  106 1    
    86   43   44 2    
    87   43   45 1    
    88   45   46 1    
    89   45   49 1    
    90   45  107 1    
    91   46   47 1    
    92   46  108 1    
    93   46  109 1    
    94   47   48 1    
    95   48  110 1    
    96   48  111 1    
    97   49   50 am   BACKBONE|DICT|INTERRES
    98   49  112 1    
    99   50   51 2    
   100   50   52 1    
   101   52   53 1    
   102   52   54 1    
   103   52  113 1    
   104   53  114 1    
   105   53  115 1    
   106   53  116 1    
   107   54   55 am   BACKBONE|DICT|INTERRES
   108   54  117 1    
   109   55   56 2    
   110   55   57 1    
   111   57   58 1    
   112   57   59 1    
   113   57  118 1    
   114   58  119 1    
   115   58  120 1    
   116   58  121 1    
   117   59   60 am   BACKBONE|DICT|INTERRES
   118   59  122 1    
   119   60   61 2    
   120   60   62 1    
   121   62   63 1    
   122   62   64 1    
   123   62  123 1    
   124   63  124 1    
   125   63  125 1    
   126   63  126 1    
   127   64   65 am   BACKBONE|DICT|INTERRES
   128   64  127 1    
   129   65   66 2    
@<TRIPOS>SUBSTRUCTURE
     1 UNK         1 GROUP             0       ****    0 ROOT    
