@<TRIPOS>MOLECULE
3R135
127   129    1
SMALL
USER_CHARGES


@<TRIPOS>ATOM
      1 CA        -82.9283   26.7620  -73.9438 C.3       0 UNK        -0.1998 
      2 C         -81.9097   26.8622  -75.0686 C.2       0 UNK         0.4909 
      3 O         -82.2045   26.4479  -76.1898 O.2       0 UNK        -0.5240 
      4 N         -80.7191   27.4038  -74.7690 N.am      1 UNK        -0.4739 
      5 CA        -79.5849   27.6276  -75.6768 C.3       1 UNK         0.0864 
      6 C6        -78.3651   28.2135  -74.9217 C.3       11 UNK        -0.0881 
      7 S7        -78.6688   29.8861  -74.2550 S.3       11 UNK        -0.2682 
      8 C8        -78.8228   29.6071  -72.4582 C.3       11 UNK         0.0289 
      9 C9        -77.6191   28.8895  -71.8603 C.ar      11 UNK        -0.0687 
     10 C10       -77.7627   27.5985  -71.3445 C.ar      11 UNK        -0.0823 
     11 C11       -76.6650   26.9165  -70.8128 C.ar      11 UNK        -0.0830 
     12 C12       -75.4204   27.5528  -70.7643 C.ar      11 UNK        -0.1021 
     13 C13       -75.2597   28.8381  -71.2892 C.ar      11 UNK        -0.0753 
     14 C14       -76.3632   29.5035  -71.8333 C.ar      11 UNK        -0.0933 
     15 C15       -73.8827   29.4807  -71.3226 C.3       11 UNK         0.0166 
     16 S16       -73.7662   30.9085  -70.2031 S.3       11 UNK        -0.2615 
     17 C17       -71.9838   31.2922  -70.3108 C.3       11 UNK        -0.0865 
     18 CA        -71.6653   32.4922  -71.2525 C.3       10 UNK         0.0862 
     19 C         -70.2048   33.0177  -71.0816 C.2       10 UNK         0.5551 
     20 N         -69.5642   33.5383  -72.1215 N.am      10 UNK        -0.7319 
     21 O         -69.6519   32.9865  -69.9845 O.2       10 UNK        -0.5018 
     22 N         -72.0757   32.2625  -72.6531 N.am      10 UNK        -0.4509 
     23 C         -71.5847   31.3273  -73.4773 C.2       10 UNK         0.4899 
     24 O         -70.7177   30.5088  -73.1630 O.2       10 UNK        -0.4839 
     25 CA        -72.1355   31.3375  -74.9105 C.3       9 UNK         0.0222 
     26 CB        -71.3156   32.2967  -75.7898 C.3       9 UNK        -0.1966 
     27 N         -72.0751   29.9944  -75.4888 N.am      9 UNK        -0.4218 
     28 C         -73.0718   29.1030  -75.4492 C.2       9 UNK         0.5020 
     29 O         -74.1835   29.3305  -74.9658 O.2       9 UNK        -0.5274 
     30 CA        -72.7603   27.7082  -76.0238 C.3       8 UNK         0.0270 
     31 CB        -72.2552   26.7790  -74.9081 C.3       8 UNK        -0.1976 
     32 N         -73.9359   27.1061  -76.6604 N.am      8 UNK        -0.4313 
     33 C         -74.5299   27.5913  -77.7612 C.2       8 UNK         0.5041 
     34 O         -74.0570   28.5090  -78.4356 O.2       8 UNK        -0.5577 
     35 CA        -75.8896   26.9826  -78.1601 C.3       7 UNK         0.0284 
     36 CB        -76.2263   27.1737  -79.6554 C.3       7 UNK        -0.1958 
     37 N         -76.0629   25.5858  -77.7451 N.am      7 UNK        -0.4454 
     38 C         -75.4022   24.5116  -78.2011 C.2       7 UNK         0.5089 
     39 O         -74.5304   24.5554  -79.0702 O.2       7 UNK        -0.5125 
     40 CA        -75.7934   23.1579  -77.5665 C.3       6 UNK         0.0408 
     41 CB        -74.6920   22.0905  -77.7359 C.3       6 UNK        -0.1791 
     42 N         -76.1989   23.2481  -76.1538 N.am      6 UNK        -0.4762 
     43 C         -75.4756   23.7686  -75.1486 C.2       6 UNK         0.5007 
     44 O         -74.3888   24.3199  -75.3256 O.2       6 UNK        -0.5032 
     45 CA        -76.0654   23.6783  -73.7264 C.3       5 UNK         0.0783 
     46 C46       -75.4628   24.7466  -72.7714 C.3       11 UNK        -0.0857 
     47 S47       -75.5938   24.3150  -70.9997 S.3       11 UNK        -0.2512 
     48 C48       -76.8320   25.4799  -70.3294 C.3       11 UNK         0.0225 
     49 N         -77.5310   23.7483  -73.7828 N.am      5 UNK        -0.4615 
     50 C         -78.3605   22.9761  -73.0713 C.2       4 UNK         0.5053 
     51 O         -77.9895   22.0410  -72.3621 O.2       4 UNK        -0.5105 
     52 CA        -79.8577   23.3019  -73.1490 C.3       4 UNK         0.0263 
     53 CB        -80.1662   24.6406  -72.4593 C.3       4 UNK        -0.1981 
     54 N         -80.3472   23.3474  -74.5284 N.am      4 UNK        -0.4224 
     55 C         -81.1737   22.4360  -75.0631 C.2       3 UNK         0.4895 
     56 O         -81.5113   21.4005  -74.4876 O.2       3 UNK        -0.5091 
     57 CA        -81.7699   22.7251  -76.4531 C.3       3 UNK         0.0250 
     58 CB        -83.2728   23.0323  -76.3355 C.3       3 UNK        -0.1996 
     59 N         -81.1199   23.8384  -77.1448 N.am      3 UNK        -0.4254 
     60 C         -80.0232   23.7165  -77.9034 C.2       2 UNK         0.5004 
     61 O         -79.4434   22.6505  -78.1079 O.2       2 UNK        -0.5226 
     62 CA        -79.4592   25.0084  -78.5179 C.3       2 UNK         0.0269 
     63 CB        -80.0956   25.2688  -79.8921 C.3       2 UNK        -0.1926 
     64 N         -79.6338   26.1954  -77.6722 N.am      2 UNK        -0.4687 
     65 C         -79.1809   26.3376  -76.4186 C.2       1 UNK         0.5165 
     66 O         -78.4980   25.4886  -75.8379 O.2       1 UNK        -0.5079 
     67 H67       -83.8156   27.3437  -74.1916 H         1 UNK         0.0900 
     68 H68       -83.2308   25.7248  -73.8033 H         1 UNK         0.0900 
     69 H69       -82.5327   27.1324  -72.9984 H         1 UNK         0.0900 
     70 H70       -80.5683   27.7343  -73.8283 H         1 UNK         0.2959 
     71 H71       -79.9045   28.3588  -76.4222 H         1 UNK         0.1079 
     72 H72       -77.5064   28.3046  -75.5880 H         1 UNK         0.0837 
     73 H73       -78.0442   27.5364  -74.1296 H         1 UNK         0.0837 
     74 H74       -79.7423   29.0540  -72.2625 H         1 UNK         0.0685 
     75 H75       -78.9401   30.5725  -71.9641 H         1 UNK         0.0685 
     76 H76       -78.7296   27.1167  -71.3738 H         1 UNK         0.1434 
     77 H77       -74.5679   27.0269  -70.3567 H         1 UNK         0.1329 
     78 H78       -76.2399   30.4933  -72.2513 H         1 UNK         0.1335 
     79 H79       -73.1134   28.7516  -71.0634 H         1 UNK         0.0680 
     80 H80       -73.6741   29.8011  -72.3418 H         1 UNK         0.0680 
     81 H81       -71.6601   31.5151  -69.2925 H         1 UNK         0.1032 
     82 H82       -71.4208   30.4055  -70.6052 H         1 UNK         0.1032 
     83 H83       -72.2814   33.3264  -70.9148 H         1 UNK         0.0461 
     84 H84       -68.6259   33.8859  -72.0004 H         1 UNK         0.3453 
     85 H85       -70.0082   33.5836  -73.0239 H         1 UNK         0.3453 
     86 H86       -72.7732   32.9017  -73.0068 H         1 UNK         0.2984 
     87 H87       -73.1707   31.6857  -74.8911 H         1 UNK         0.0554 
     88 H88       -71.3705   33.3189  -75.4132 H         1 UNK         0.0847 
     89 H89       -71.6894   32.3119  -76.8138 H         1 UNK         0.0847 
     90 H90       -70.2615   32.0173  -75.8224 H         1 UNK         0.0847 
     91 H91       -71.1743   29.7012  -75.8394 H         1 UNK         0.3141 
     92 H92       -71.9798   27.8029  -76.7817 H         1 UNK         0.0743 
     93 H93       -71.3639   27.1875  -74.4298 H         1 UNK         0.0784 
     94 H94       -71.9924   25.7954  -75.2981 H         1 UNK         0.0784 
     95 H95       -73.0077   26.6412  -74.1302 H         1 UNK         0.0784 
     96 H96       -74.3521   26.3156  -76.1827 H         1 UNK         0.3213 
     97 H97       -76.6299   27.5524  -77.6004 H         1 UNK         0.0855 
     98 H98       -75.4847   26.7050  -80.3025 H         1 UNK         0.0814 
     99 H99       -76.2570   28.2323  -79.9163 H         1 UNK         0.0814 
    100 H100      -77.2013   26.7554  -79.9021 H         1 UNK         0.0814 
    101 H101      -76.7416   25.4254  -77.0085 H         1 UNK         0.3105 
    102 H102      -76.6710   22.8125  -78.1141 H         1 UNK         0.0547 
    103 H103      -74.9949   21.1353  -77.3075 H         1 UNK         0.0837 
    104 H104      -73.7602   22.3933  -77.2570 H         1 UNK         0.0837 
    105 H105      -74.4734   21.9145  -78.7899 H         1 UNK         0.0837 
    106 H106      -77.0978   22.8445  -75.9274 H         1 UNK         0.3020 
    107 H107      -75.7586   22.6929  -73.3683 H         1 UNK         0.1245 
    108 H108      -75.8987   25.7225  -72.9844 H         1 UNK         0.0781 
    109 H109      -74.3910   24.8681  -72.9354 H         1 UNK         0.0781 
    110 H110      -76.7741   25.4654  -69.2405 H         1 UNK         0.0836 
    111 H111      -77.8194   25.0999  -70.5856 H         1 UNK         0.0836 
    112 H112      -77.9117   24.4663  -74.3945 H         1 UNK         0.3022 
    113 H113      -80.3841   22.5269  -72.5875 H         1 UNK         0.0747 
    114 H114      -81.2326   24.8599  -72.4905 H         1 UNK         0.0793 
    115 H115      -79.8848   24.6083  -71.4072 H         1 UNK         0.0793 
    116 H116      -79.6354   25.4717  -72.9236 H         1 UNK         0.0793 
    117 H117      -80.0581   24.1337  -75.0949 H         1 UNK         0.3047 
    118 H118      -81.6578   21.8166  -77.0492 H         1 UNK         0.0822 
    119 H119      -83.7237   23.1857  -77.3161 H         1 UNK         0.0807 
    120 H120      -83.4572   23.9264  -75.7390 H         1 UNK         0.0807 
    121 H121      -83.8065   22.2076  -75.8610 H         1 UNK         0.0807 
    122 H122      -81.5214   24.7625  -77.0056 H         1 UNK         0.2946 
    123 H123      -78.3940   24.8475  -78.6716 H         1 UNK         0.1144 
    124 H124      -79.6421   26.1288  -80.3851 H         1 UNK         0.0793 
    125 H125      -81.1676   25.4544  -79.8120 H         1 UNK         0.0793 
    126 H126      -79.9617   24.4114  -80.5534 H         1 UNK         0.0793 
    127 H127      -80.2317   26.9191  -78.0464 H         1 UNK         0.2896 
@<TRIPOS>BOND
     1    1    2 1    
     2    1   67 1    
     3    1   68 1    
     4    1   69 1    
     5    2    3 2    
     6    2    4 am   BACKBONE|DICT|INTERRES
     7    4    5 1    
     8    4   70 1    
     9    5    6 1    
    10    5   65 1    
    11    5   71 1    
    12    6    7 1    
    13    6   72 1    
    14    6   73 1    
    15    7    8 1    
    16    8    9 1    
    17    8   74 1    
    18    8   75 1    
    19    9   10 ar   
    20    9   14 ar   
    21   10   11 ar   
    22   10   76 1    
    23   11   12 ar   
    24   11   48 1    
    25   12   13 ar   
    26   12   77 1    
    27   13   14 ar   
    28   13   15 1    
    29   14   78 1    
    30   15   16 1    
    31   15   79 1    
    32   15   80 1    
    33   16   17 1    
    34   17   18 1    
    35   17   81 1    
    36   17   82 1    
    37   18   19 1    
    38   18   22 1    
    39   18   83 1    
    40   19   20 am   BACKBONE|DICT|INTERRES
    41   19   21 2    
    42   20   84 1    
    43   20   85 1    
    44   22   23 am   BACKBONE|DICT|INTERRES
    45   22   86 1    
    46   23   24 2    
    47   23   25 1    
    48   25   26 1    
    49   25   27 1    
    50   25   87 1    
    51   26   88 1    
    52   26   89 1    
    53   26   90 1    
    54   27   28 am   BACKBONE|DICT|INTERRES
    55   27   91 1    
    56   28   29 2    
    57   28   30 1    
    58   30   31 1    
    59   30   32 1    
    60   30   92 1    
    61   31   93 1    
    62   31   94 1    
    63   31   95 1    
    64   32   33 am   BACKBONE|DICT|INTERRES
    65   32   96 1    
    66   33   34 2    
    67   33   35 1    
    68   35   36 1    
    69   35   37 1    
    70   35   97 1    
    71   36   98 1    
    72   36   99 1    
    73   36  100 1    
    74   37   38 am   BACKBONE|DICT|INTERRES
    75   37  101 1    
    76   38   39 2    
    77   38   40 1    
    78   40   41 1    
    79   40   42 1    
    80   40  102 1    
    81   41  103 1    
    82   41  104 1    
    83   41  105 1    
    84   42   43 am   BACKBONE|DICT|INTERRES
    85   42  106 1    
    86   43   44 2    
    87   43   45 1    
    88   45   46 1    
    89   45   49 1    
    90   45  107 1    
    91   46   47 1    
    92   46  108 1    
    93   46  109 1    
    94   47   48 1    
    95   48  110 1    
    96   48  111 1    
    97   49   50 am   BACKBONE|DICT|INTERRES
    98   49  112 1    
    99   50   51 2    
   100   50   52 1    
   101   52   53 1    
   102   52   54 1    
   103   52  113 1    
   104   53  114 1    
   105   53  115 1    
   106   53  116 1    
   107   54   55 am   BACKBONE|DICT|INTERRES
   108   54  117 1    
   109   55   56 2    
   110   55   57 1    
   111   57   58 1    
   112   57   59 1    
   113   57  118 1    
   114   58  119 1    
   115   58  120 1    
   116   58  121 1    
   117   59   60 am   BACKBONE|DICT|INTERRES
   118   59  122 1    
   119   60   61 2    
   120   60   62 1    
   121   62   63 1    
   122   62   64 1    
   123   62  123 1    
   124   63  124 1    
   125   63  125 1    
   126   63  126 1    
   127   64   65 am   BACKBONE|DICT|INTERRES
   128   64  127 1    
   129   65   66 2    
@<TRIPOS>SUBSTRUCTURE
     1 UNK         1 GROUP             0       ****    0 ROOT    
