@<TRIPOS>MOLECULE
3R135
127   129    1
SMALL
USER_CHARGES


@<TRIPOS>ATOM
      1 CA        -85.9014   28.3996  -69.7445 C.3       0 UNK        -0.1998 
      2 C         -84.9946   29.0800  -70.7587 C.2       0 UNK         0.4909 
      3 O         -85.4388   29.9818  -71.4699 O.2       0 UNK        -0.5240 
      4 N         -83.7259   28.6563  -70.8291 N.am      1 UNK        -0.4739 
      5 CA        -82.7137   29.1647  -71.7653 C.3       1 UNK         0.0864 
      6 C6        -81.2743   28.8026  -71.3161 C.3       11 UNK        -0.0881 
      7 S7        -81.0458   27.0342  -70.9116 S.3       11 UNK        -0.2682 
      8 C8        -80.1563   26.4414  -72.3783 C.3       11 UNK         0.0289 
      9 C9        -78.6509   26.4009  -72.1628 C.ar      11 UNK        -0.0687 
     10 C10       -78.0265   25.1922  -71.8455 C.ar      11 UNK        -0.0823 
     11 C11       -76.6398   25.1268  -71.6865 C.ar      11 UNK        -0.0830 
     12 C12       -75.8728   26.2841  -71.8528 C.ar      11 UNK        -0.1021 
     13 C13       -76.4852   27.5034  -72.1628 C.ar      11 UNK        -0.0753 
     14 C14       -77.8764   27.5553  -72.3080 C.ar      11 UNK        -0.0933 
     15 C15       -75.6436   28.7658  -72.3047 C.3       11 UNK         0.0166 
     16 S16       -75.9585   29.6428  -73.8697 S.3       11 UNK        -0.2615 
     17 C17       -74.6523   30.9176  -73.8304 C.3       11 UNK        -0.0865 
     18 CA        -73.9369   31.1096  -75.1951 C.3       10 UNK         0.0862 
     19 C         -72.8299   32.1984  -75.0656 C.2       10 UNK         0.5551 
     20 N         -71.5475   31.8504  -75.0892 N.am      10 UNK        -0.7319 
     21 O         -73.1453   33.3787  -74.9378 O.2       10 UNK        -0.5018 
     22 N         -73.4697   29.8333  -75.7570 N.am      10 UNK        -0.4509 
     23 C         -73.0063   29.6531  -77.0011 C.2       10 UNK         0.4899 
     24 O         -73.0461   30.5205  -77.8750 O.2       10 UNK        -0.4839 
     25 CA        -72.3894   28.2740  -77.3215 C.3       9 UNK         0.0222 
     26 CB        -71.2368   28.3700  -78.3421 C.3       9 UNK        -0.1966 
     27 N         -71.9583   27.5160  -76.1383 N.am      9 UNK        -0.4218 
     28 C         -71.0751   27.8873  -75.1965 C.2       9 UNK         0.5020 
     29 O         -70.4839   28.9683  -75.1894 O.2       9 UNK        -0.5274 
     30 CA        -70.8498   26.8979  -74.0457 C.3       8 UNK         0.0270 
     31 CB        -72.0240   26.9559  -73.0521 C.3       8 UNK        -0.1976 
     32 N         -70.7024   25.5311  -74.5475 N.am      8 UNK        -0.4313 
     33 C         -69.5298   24.9263  -74.7821 C.2       8 UNK         0.5041 
     34 O         -68.4344   25.4431  -74.5576 O.2       8 UNK        -0.5577 
     35 CA        -69.5752   23.4952  -75.3515 C.3       7 UNK         0.0284 
     36 CB        -69.4507   22.4645  -74.2174 C.3       7 UNK        -0.1958 
     37 N         -70.7879   23.2149  -76.1240 N.am      7 UNK        -0.4454 
     38 C         -71.0557   23.7273  -77.3329 C.2       7 UNK         0.5089 
     39 O         -70.2739   24.4372  -77.9653 O.2       7 UNK        -0.5125 
     40 CA        -72.4423   23.4169  -77.9286 C.3       6 UNK         0.0408 
     41 CB        -72.3567   22.2134  -78.8806 C.3       6 UNK        -0.1791 
     42 N         -73.5038   23.1794  -76.9385 N.am      6 UNK        -0.4762 
     43 C         -73.9034   24.0658  -76.0158 C.2       6 UNK         0.5007 
     44 O         -73.3389   25.1443  -75.8173 O.2       6 UNK        -0.5032 
     45 CA        -75.1071   23.6877  -75.1350 C.3       5 UNK         0.0783 
     46 C46       -74.6175   23.2755  -73.7264 C.3       11 UNK        -0.0857 
     47 S47       -75.9651   22.6234  -72.6878 S.3       11 UNK        -0.2512 
     48 C48       -75.9849   23.8074  -71.3042 C.3       11 UNK         0.0225 
     49 N         -76.0282   24.8254  -75.0938 N.am      5 UNK        -0.4615 
     50 C         -76.7863   25.2136  -76.1254 C.2       4 UNK         0.5053 
     51 O         -76.9257   24.5628  -77.1639 O.2       4 UNK        -0.5105 
     52 CA        -77.4231   26.6060  -76.0089 C.3       4 UNK         0.0263 
     53 CB        -76.5283   27.6396  -76.7140 C.3       4 UNK        -0.1981 
     54 N         -78.7702   26.6765  -76.5775 N.am      4 UNK        -0.4224 
     55 C         -79.8338   26.0083  -76.1157 C.2       3 UNK         0.4895 
     56 O         -79.8014   25.2005  -75.1862 O.2       3 UNK        -0.5091 
     57 CA        -81.1721   26.2972  -76.7973 C.3       3 UNK         0.0250 
     58 CB        -81.5580   25.1593  -77.7610 C.3       3 UNK        -0.1996 
     59 N         -82.1908   26.4614  -75.7612 N.am      3 UNK        -0.4254 
     60 C         -83.3441   27.1190  -75.9217 C.2       2 UNK         0.5004 
     61 O         -83.6890   27.6484  -76.9794 O.2       2 UNK        -0.5226 
     62 CA        -84.2818   27.1995  -74.7042 C.3       2 UNK         0.0269 
     63 CB        -85.0061   25.8602  -74.4876 C.3       2 UNK        -0.1926 
     64 N         -83.6571   27.6229  -73.4446 N.am      2 UNK        -0.4687 
     65 C         -83.0013   28.7766  -73.2355 C.2       1 UNK         0.5165 
     66 O         -82.6753   29.5536  -74.1334 O.2       1 UNK        -0.5079 
     67 H67       -85.3767   27.6278  -69.1816 H         1 UNK         0.0900 
     68 H68       -86.7472   27.9346  -70.2503 H         1 UNK         0.0900 
     69 H69       -86.2881   29.1319  -69.0362 H         1 UNK         0.0900 
     70 H70       -83.4089   27.9149  -70.2191 H         1 UNK         0.2959 
     71 H71       -82.7834   30.2549  -71.7380 H         1 UNK         0.1079 
     72 H72       -80.5427   29.1278  -72.0572 H         1 UNK         0.0837 
     73 H73       -81.0338   29.3676  -70.4143 H         1 UNK         0.0837 
     74 H74       -80.3931   27.0625  -73.2427 H         1 UNK         0.0685 
     75 H75       -80.5252   25.4425  -72.6156 H         1 UNK         0.0685 
     76 H76       -78.6199   24.2956  -71.7276 H         1 UNK         0.1434 
     77 H77       -74.8003   26.2385  -71.7208 H         1 UNK         0.1329 
     78 H78       -78.3520   28.4950  -72.5499 H         1 UNK         0.1335 
     79 H79       -74.5826   28.5211  -72.2432 H         1 UNK         0.0680 
     80 H80       -75.8600   29.4336  -71.4698 H         1 UNK         0.0680 
     81 H81       -75.1120   31.8548  -73.5105 H         1 UNK         0.1032 
     82 H82       -73.9220   30.6652  -73.0591 H         1 UNK         0.1032 
     83 H83       -74.6742   31.5054  -75.8963 H         1 UNK         0.0461 
     84 H84       -71.2735   30.8787  -75.1855 H         1 UNK         0.3453 
     85 H85       -70.8414   32.5640  -75.0055 H         1 UNK         0.3453 
     86 H86       -73.4165   29.0615  -75.1112 H         1 UNK         0.2984 
     87 H87       -73.1874   27.6862  -77.7774 H         1 UNK         0.0554 
     88 H88       -70.8274   27.3854  -78.5697 H         1 UNK         0.0847 
     89 H89       -70.4227   28.9944  -77.9727 H         1 UNK         0.0847 
     90 H90       -71.5780   28.8024  -79.2833 H         1 UNK         0.0847 
     91 H91       -72.4297   26.6189  -76.0181 H         1 UNK         0.3141 
     92 H92       -69.9449   27.2003  -73.5140 H         1 UNK         0.0743 
     93 H93       -72.1392   27.9620  -72.6467 H         1 UNK         0.0784 
     94 H94       -72.9708   26.6792  -73.5177 H         1 UNK         0.0784 
     95 H95       -71.8596   26.2855  -72.2083 H         1 UNK         0.0784 
     96 H96       -71.5538   25.0580  -74.8258 H         1 UNK         0.3213 
     97 H97       -68.7146   23.3795  -76.0144 H         1 UNK         0.0855 
     98 H98       -70.2904   22.5217  -73.5234 H         1 UNK         0.0814 
     99 H99       -68.5399   22.6295  -73.6398 H         1 UNK         0.0814 
    100 H100      -69.4038   21.4476  -74.6074 H         1 UNK         0.0814 
    101 H101      -71.4828   22.6217  -75.6946 H         1 UNK         0.3105 
    102 H102      -72.7389   24.2899  -78.5140 H         1 UNK         0.0547 
    103 H103      -72.0992   21.2957  -78.3505 H         1 UNK         0.0837 
    104 H104      -73.3004   22.0491  -79.4009 H         1 UNK         0.0837 
    105 H105      -71.5938   22.3728  -79.6441 H         1 UNK         0.0837 
    106 H106      -74.0093   22.3090  -77.0291 H         1 UNK         0.3020 
    107 H107      -75.6265   22.8409  -75.5897 H         1 UNK         0.1245 
    108 H108      -74.1296   24.1133  -73.2245 H         1 UNK         0.0781 
    109 H109      -73.8639   22.4886  -73.7985 H         1 UNK         0.0781 
    110 H110      -76.5391   23.3643  -70.4754 H         1 UNK         0.0836 
    111 H111      -74.9695   23.9627  -70.9360 H         1 UNK         0.0836 
    112 H112      -75.9736   25.4115  -74.2732 H         1 UNK         0.3022 
    113 H113      -77.4962   26.8714  -74.9538 H         1 UNK         0.0747 
    114 H114      -75.5245   27.6386  -76.2869 H         1 UNK         0.0793 
    115 H115      -76.9227   28.6502  -76.6067 H         1 UNK         0.0793 
    116 H116      -76.4276   27.4285  -77.7794 H         1 UNK         0.0793 
    117 H117      -78.8868   27.2870  -77.3728 H         1 UNK         0.3047 
    118 H118      -81.0871   27.2301  -77.3595 H         1 UNK         0.0822 
    119 H119      -80.7875   25.0115  -78.5188 H         1 UNK         0.0807 
    120 H120      -82.4889   25.3772  -78.2847 H         1 UNK         0.0807 
    121 H121      -81.6839   24.2128  -77.2336 H         1 UNK         0.0807 
    122 H122      -81.9612   26.0586  -74.8622 H         1 UNK         0.2946 
    123 H123      -85.0381   27.9504  -74.9442 H         1 UNK         0.1144 
    124 H124      -85.4915   25.5249  -75.4055 H         1 UNK         0.0793 
    125 H125      -85.7829   25.9472  -73.7276 H         1 UNK         0.0793 
    126 H126      -84.3182   25.0730  -74.1766 H         1 UNK         0.0793 
    127 H127      -83.8641   27.0608  -72.6316 H         1 UNK         0.2896 
@<TRIPOS>BOND
     1    1    2 1    
     2    1   67 1    
     3    1   68 1    
     4    1   69 1    
     5    2    3 2    
     6    2    4 am   BACKBONE|DICT|INTERRES
     7    4    5 1    
     8    4   70 1    
     9    5    6 1    
    10    5   65 1    
    11    5   71 1    
    12    6    7 1    
    13    6   72 1    
    14    6   73 1    
    15    7    8 1    
    16    8    9 1    
    17    8   74 1    
    18    8   75 1    
    19    9   10 ar   
    20    9   14 ar   
    21   10   11 ar   
    22   10   76 1    
    23   11   12 ar   
    24   11   48 1    
    25   12   13 ar   
    26   12   77 1    
    27   13   14 ar   
    28   13   15 1    
    29   14   78 1    
    30   15   16 1    
    31   15   79 1    
    32   15   80 1    
    33   16   17 1    
    34   17   18 1    
    35   17   81 1    
    36   17   82 1    
    37   18   19 1    
    38   18   22 1    
    39   18   83 1    
    40   19   20 am   BACKBONE|DICT|INTERRES
    41   19   21 2    
    42   20   84 1    
    43   20   85 1    
    44   22   23 am   BACKBONE|DICT|INTERRES
    45   22   86 1    
    46   23   24 2    
    47   23   25 1    
    48   25   26 1    
    49   25   27 1    
    50   25   87 1    
    51   26   88 1    
    52   26   89 1    
    53   26   90 1    
    54   27   28 am   BACKBONE|DICT|INTERRES
    55   27   91 1    
    56   28   29 2    
    57   28   30 1    
    58   30   31 1    
    59   30   32 1    
    60   30   92 1    
    61   31   93 1    
    62   31   94 1    
    63   31   95 1    
    64   32   33 am   BACKBONE|DICT|INTERRES
    65   32   96 1    
    66   33   34 2    
    67   33   35 1    
    68   35   36 1    
    69   35   37 1    
    70   35   97 1    
    71   36   98 1    
    72   36   99 1    
    73   36  100 1    
    74   37   38 am   BACKBONE|DICT|INTERRES
    75   37  101 1    
    76   38   39 2    
    77   38   40 1    
    78   40   41 1    
    79   40   42 1    
    80   40  102 1    
    81   41  103 1    
    82   41  104 1    
    83   41  105 1    
    84   42   43 am   BACKBONE|DICT|INTERRES
    85   42  106 1    
    86   43   44 2    
    87   43   45 1    
    88   45   46 1    
    89   45   49 1    
    90   45  107 1    
    91   46   47 1    
    92   46  108 1    
    93   46  109 1    
    94   47   48 1    
    95   48  110 1    
    96   48  111 1    
    97   49   50 am   BACKBONE|DICT|INTERRES
    98   49  112 1    
    99   50   51 2    
   100   50   52 1    
   101   52   53 1    
   102   52   54 1    
   103   52  113 1    
   104   53  114 1    
   105   53  115 1    
   106   53  116 1    
   107   54   55 am   BACKBONE|DICT|INTERRES
   108   54  117 1    
   109   55   56 2    
   110   55   57 1    
   111   57   58 1    
   112   57   59 1    
   113   57  118 1    
   114   58  119 1    
   115   58  120 1    
   116   58  121 1    
   117   59   60 am   BACKBONE|DICT|INTERRES
   118   59  122 1    
   119   60   61 2    
   120   60   62 1    
   121   62   63 1    
   122   62   64 1    
   123   62  123 1    
   124   63  124 1    
   125   63  125 1    
   126   63  126 1    
   127   64   65 am   BACKBONE|DICT|INTERRES
   128   64  127 1    
   129   65   66 2    
@<TRIPOS>SUBSTRUCTURE
     1 UNK         1 GROUP             0       ****    0 ROOT    
