@<TRIPOS>MOLECULE
3R135
127   129    1
SMALL
USER_CHARGES


@<TRIPOS>ATOM
      1 CA        -82.4762   27.0612  -69.8589 C.3       0 UNK        -0.1998 
      2 C         -83.0071   26.9329  -71.2793 C.2       0 UNK         0.4909 
      3 O         -84.1185   26.4405  -71.4768 O.2       0 UNK        -0.5240 
      4 N         -82.2190   27.3757  -72.2685 N.am      1 UNK        -0.4739 
      5 CA        -82.5587   27.3542  -73.6997 C.3       1 UNK         0.0864 
      6 C6        -81.5444   28.1553  -74.5581 C.3       11 UNK        -0.0881 
      7 S7        -81.2706   29.8650  -73.9836 S.3       11 UNK        -0.2682 
      8 C8        -79.5550   30.1495  -74.5474 C.3       11 UNK         0.0289 
      9 C9        -78.4728   29.7937  -73.5258 C.ar      11 UNK        -0.0687 
     10 C10       -78.6032   28.7163  -72.6400 C.ar      11 UNK        -0.0823 
     11 C11       -77.6042   28.4304  -71.7054 C.ar      11 UNK        -0.0830 
     12 C12       -76.4463   29.2125  -71.6764 C.ar      11 UNK        -0.1021 
     13 C13       -76.2910   30.2804  -72.5642 C.ar      11 UNK        -0.0753 
     14 C14       -77.3069   30.5655  -73.4814 C.ar      11 UNK        -0.0933 
     15 C15       -75.0434   31.1487  -72.5136 C.3       11 UNK         0.0166 
     16 S16       -73.9295   30.8071  -73.9101 S.3       11 UNK        -0.2615 
     17 C17       -72.5864   32.0001  -73.5660 C.3       11 UNK        -0.0865 
     18 CA        -71.2295   31.3483  -73.1884 C.3       10 UNK         0.0862 
     19 C         -71.2773   30.6068  -71.8203 C.2       10 UNK         0.5551 
     20 N         -71.3527   31.3482  -70.7230 N.am      10 UNK        -0.7319 
     21 O         -71.2689   29.3795  -71.7400 O.2       10 UNK        -0.5018 
     22 N         -70.7131   30.5257  -74.2896 N.am      10 UNK        -0.4509 
     23 C         -69.4550   30.0879  -74.4064 C.2       10 UNK         0.4899 
     24 O         -68.5474   30.4011  -73.6334 O.2       10 UNK        -0.4839 
     25 CA        -69.1739   29.1340  -75.5852 C.3       9 UNK         0.0222 
     26 CB        -67.6861   28.7497  -75.6968 C.3       9 UNK        -0.1966 
     27 N         -69.9753   27.9104  -75.4901 N.am      9 UNK        -0.4218 
     28 C         -71.2688   27.8058  -75.8196 C.2       9 UNK         0.5020 
     29 O         -71.9353   28.7425  -76.2681 O.2       9 UNK        -0.5274 
     30 CA        -71.9247   26.4413  -75.5497 C.3       8 UNK         0.0270 
     31 CB        -72.3070   26.3196  -74.0650 C.3       8 UNK        -0.1976 
     32 N         -73.1114   26.2258  -76.3842 N.am      8 UNK        -0.4313 
     33 C         -73.0604   25.9738  -77.7014 C.2       8 UNK         0.5041 
     34 O         -72.0006   25.8708  -78.3234 O.2       8 UNK        -0.5577 
     35 CA        -74.3789   25.7626  -78.4734 C.3       7 UNK         0.0284 
     36 CB        -74.4685   24.3164  -78.9912 C.3       7 UNK        -0.1958 
     37 N         -75.5865   26.0584  -77.7019 N.am      7 UNK        -0.4454 
     38 C         -76.0653   27.2841  -77.4518 C.2       7 UNK         0.5089 
     39 O         -75.5680   28.3186  -77.8959 O.2       7 UNK        -0.5125 
     40 CA        -77.3022   27.3688  -76.5352 C.3       6 UNK         0.0408 
     41 CB        -78.5912   27.3135  -77.3699 C.3       6 UNK        -0.1791 
     42 N         -77.3452   26.3199  -75.5104 N.am      6 UNK        -0.4762 
     43 C         -76.4099   26.1323  -74.5663 C.2       6 UNK         0.5007 
     44 O         -75.4117   26.8392  -74.4513 O.2       6 UNK        -0.5032 
     45 CA        -76.5725   24.8981  -73.6620 C.3       5 UNK         0.0783 
     46 C46       -77.5728   25.1342  -72.5031 C.3       11 UNK        -0.0857 
     47 S47       -76.7527   25.8621  -71.0470 S.3       11 UNK        -0.2512 
     48 C48       -77.7954   27.3094  -70.6933 C.3       11 UNK         0.0225 
     49 N         -76.9341   23.7290  -74.4642 N.am      5 UNK        -0.4615 
     50 C         -76.0592   22.9901  -75.1598 C.2       4 UNK         0.5053 
     51 O         -74.8441   23.1835  -75.1541 O.2       4 UNK        -0.5105 
     52 CA        -76.6306   21.8429  -76.0128 C.3       4 UNK         0.0263 
     53 CB        -76.6049   20.5244  -75.2233 C.3       4 UNK        -0.1981 
     54 N         -77.9931   22.0948  -76.4892 N.am      4 UNK        -0.4224 
     55 C         -78.3194   23.0407  -77.3807 C.2       3 UNK         0.4895 
     56 O         -77.5025   23.7862  -77.9188 O.2       3 UNK        -0.5091 
     57 CA        -79.8172   23.2220  -77.6785 C.3       3 UNK         0.0250 
     58 CB        -80.2789   22.2244  -78.7527 C.3       3 UNK        -0.1996 
     59 N         -80.6821   23.1121  -76.4960 N.am      3 UNK        -0.4254 
     60 C         -80.5778   23.8791  -75.4022 C.2       2 UNK         0.5004 
     61 O         -79.6752   24.7020  -75.2237 O.2       2 UNK        -0.5226 
     62 CA        -81.6317   23.6813  -74.3020 C.3       2 UNK         0.0269 
     63 CB        -81.1069   22.7204  -73.2234 C.3       2 UNK        -0.1926 
     64 N         -81.9358   24.9735  -73.6879 N.am      2 UNK        -0.4687 
     65 C         -82.6655   25.9288  -74.2819 C.2       1 UNK         0.5165 
     66 O         -83.3575   25.7337  -75.2829 O.2       1 UNK        -0.5079 
     67 H67       -83.1692   27.6459  -69.2522 H         1 UNK         0.0900 
     68 H68       -81.5015   27.5519  -69.8291 H         1 UNK         0.0900 
     69 H69       -82.3742   26.0736  -69.4050 H         1 UNK         0.0900 
     70 H70       -81.3483   27.8285  -72.0364 H         1 UNK         0.2959 
     71 H71       -83.5419   27.8180  -73.8090 H         1 UNK         0.1079 
     72 H72       -80.5860   27.6330  -74.5956 H         1 UNK         0.0837 
     73 H73       -81.8896   28.2123  -75.5929 H         1 UNK         0.0837 
     74 H74       -79.4756   31.2070  -74.8040 H         1 UNK         0.0685 
     75 H75       -79.3725   29.6022  -75.4724 H         1 UNK         0.0685 
     76 H76       -79.4884   28.1033  -72.6596 H         1 UNK         0.1434 
     77 H77       -75.6700   28.9921  -70.9563 H         1 UNK         0.1329 
     78 H78       -77.1841   31.3957  -74.1637 H         1 UNK         0.1335 
     79 H79       -74.5040   30.9907  -71.5781 H         1 UNK         0.0680 
     80 H80       -75.3350   32.2000  -72.5308 H         1 UNK         0.0680 
     81 H81       -72.8989   32.6998  -72.7890 H         1 UNK         0.1032 
     82 H82       -72.4539   32.6127  -74.4591 H         1 UNK         0.1032 
     83 H83       -70.5140   32.1637  -73.0632 H         1 UNK         0.0461 
     84 H84       -71.3914   30.8896  -69.8262 H         1 UNK         0.3453 
     85 H85       -71.3541   32.3551  -70.7693 H         1 UNK         0.3453 
     86 H86       -71.4046   30.1573  -74.9359 H         1 UNK         0.2984 
     87 H87       -69.4461   29.6628  -76.5012 H         1 UNK         0.0554 
     88 H88       -67.0610   29.6372  -75.8051 H         1 UNK         0.0847 
     89 H89       -67.5026   28.1202  -76.5677 H         1 UNK         0.0847 
     90 H90       -67.3380   28.2120  -74.8139 H         1 UNK         0.0847 
     91 H91       -69.5154   27.1068  -75.0859 H         1 UNK         0.3141 
     92 H92       -71.2034   25.6553  -75.7839 H         1 UNK         0.0743 
     93 H93       -71.4199   26.3174  -73.4305 H         1 UNK         0.0784 
     94 H94       -72.9278   27.1559  -73.7397 H         1 UNK         0.0784 
     95 H95       -72.8519   25.3965  -73.8654 H         1 UNK         0.0784 
     96 H96       -74.0108   26.3647  -75.9360 H         1 UNK         0.3213 
     97 H97       -74.3519   26.4299  -79.3375 H         1 UNK         0.0855 
     98 H98       -74.5165   23.5991  -78.1708 H         1 UNK         0.0814 
     99 H99       -73.6003   24.0599  -79.5997 H         1 UNK         0.0814 
    100 H100      -75.3510   24.1723  -79.6148 H         1 UNK         0.0814 
    101 H101      -76.1204   25.2619  -77.3709 H         1 UNK         0.3105 
    102 H102      -77.2645   28.3289  -76.0168 H         1 UNK         0.0547 
    103 H103      -78.6236   28.1318  -78.0903 H         1 UNK         0.0837 
    104 H104      -78.6651   26.3818  -77.9314 H         1 UNK         0.0837 
    105 H105      -79.4791   27.3952  -76.7445 H         1 UNK         0.0837 
    106 H106      -78.1508   25.6968  -75.5231 H         1 UNK         0.3020 
    107 H107      -75.5905   24.6964  -73.2260 H         1 UNK         0.1245 
    108 H108      -77.9909   24.1833  -72.1699 H         1 UNK         0.0781 
    109 H109      -78.4278   25.7349  -72.8189 H         1 UNK         0.0781 
    110 H110      -78.8401   26.9992  -70.6405 H         1 UNK         0.0836 
    111 H111      -77.5440   27.6835  -69.6998 H         1 UNK         0.0836 
    112 H112      -77.9235   23.5610  -74.5865 H         1 UNK         0.3022 
    113 H113      -75.9843   21.7315  -76.8862 H         1 UNK         0.0747 
    114 H114      -75.5954   20.2972  -74.8772 H         1 UNK         0.0793 
    115 H115      -76.9299   19.6859  -75.8396 H         1 UNK         0.0793 
    116 H116      -77.2489   20.5663  -74.3438 H         1 UNK         0.0793 
    117 H117      -78.7309   21.5289  -76.0959 H         1 UNK         0.3047 
    118 H118      -79.9452   24.2303  -78.0774 H         1 UNK         0.0822 
    119 H119      -81.3076   22.4173  -79.0581 H         1 UNK         0.0807 
    120 H120      -80.2198   21.1933  -78.4019 H         1 UNK         0.0807 
    121 H121      -79.6591   22.3002  -79.6475 H         1 UNK         0.0807 
    122 H122      -81.4424   22.4496  -76.5558 H         1 UNK         0.2946 
    123 H123      -82.5436   23.2682  -74.7397 H         1 UNK         0.1144 
    124 H124      -80.8890   21.7385  -73.6457 H         1 UNK         0.0793 
    125 H125      -81.8429   22.5748  -72.4324 H         1 UNK         0.0793 
    126 H126      -80.1896   23.0885  -72.7625 H         1 UNK         0.0793 
    127 H127      -81.3844   25.2342  -72.8843 H         1 UNK         0.2896 
@<TRIPOS>BOND
     1    1    2 1    
     2    1   67 1    
     3    1   68 1    
     4    1   69 1    
     5    2    3 2    
     6    2    4 am   BACKBONE|DICT|INTERRES
     7    4    5 1    
     8    4   70 1    
     9    5    6 1    
    10    5   65 1    
    11    5   71 1    
    12    6    7 1    
    13    6   72 1    
    14    6   73 1    
    15    7    8 1    
    16    8    9 1    
    17    8   74 1    
    18    8   75 1    
    19    9   10 ar   
    20    9   14 ar   
    21   10   11 ar   
    22   10   76 1    
    23   11   12 ar   
    24   11   48 1    
    25   12   13 ar   
    26   12   77 1    
    27   13   14 ar   
    28   13   15 1    
    29   14   78 1    
    30   15   16 1    
    31   15   79 1    
    32   15   80 1    
    33   16   17 1    
    34   17   18 1    
    35   17   81 1    
    36   17   82 1    
    37   18   19 1    
    38   18   22 1    
    39   18   83 1    
    40   19   20 am   BACKBONE|DICT|INTERRES
    41   19   21 2    
    42   20   84 1    
    43   20   85 1    
    44   22   23 am   BACKBONE|DICT|INTERRES
    45   22   86 1    
    46   23   24 2    
    47   23   25 1    
    48   25   26 1    
    49   25   27 1    
    50   25   87 1    
    51   26   88 1    
    52   26   89 1    
    53   26   90 1    
    54   27   28 am   BACKBONE|DICT|INTERRES
    55   27   91 1    
    56   28   29 2    
    57   28   30 1    
    58   30   31 1    
    59   30   32 1    
    60   30   92 1    
    61   31   93 1    
    62   31   94 1    
    63   31   95 1    
    64   32   33 am   BACKBONE|DICT|INTERRES
    65   32   96 1    
    66   33   34 2    
    67   33   35 1    
    68   35   36 1    
    69   35   37 1    
    70   35   97 1    
    71   36   98 1    
    72   36   99 1    
    73   36  100 1    
    74   37   38 am   BACKBONE|DICT|INTERRES
    75   37  101 1    
    76   38   39 2    
    77   38   40 1    
    78   40   41 1    
    79   40   42 1    
    80   40  102 1    
    81   41  103 1    
    82   41  104 1    
    83   41  105 1    
    84   42   43 am   BACKBONE|DICT|INTERRES
    85   42  106 1    
    86   43   44 2    
    87   43   45 1    
    88   45   46 1    
    89   45   49 1    
    90   45  107 1    
    91   46   47 1    
    92   46  108 1    
    93   46  109 1    
    94   47   48 1    
    95   48  110 1    
    96   48  111 1    
    97   49   50 am   BACKBONE|DICT|INTERRES
    98   49  112 1    
    99   50   51 2    
   100   50   52 1    
   101   52   53 1    
   102   52   54 1    
   103   52  113 1    
   104   53  114 1    
   105   53  115 1    
   106   53  116 1    
   107   54   55 am   BACKBONE|DICT|INTERRES
   108   54  117 1    
   109   55   56 2    
   110   55   57 1    
   111   57   58 1    
   112   57   59 1    
   113   57  118 1    
   114   58  119 1    
   115   58  120 1    
   116   58  121 1    
   117   59   60 am   BACKBONE|DICT|INTERRES
   118   59  122 1    
   119   60   61 2    
   120   60   62 1    
   121   62   63 1    
   122   62   64 1    
   123   62  123 1    
   124   63  124 1    
   125   63  125 1    
   126   63  126 1    
   127   64   65 am   BACKBONE|DICT|INTERRES
   128   64  127 1    
   129   65   66 2    
@<TRIPOS>SUBSTRUCTURE
     1 UNK         1 GROUP             0       ****    0 ROOT    
