@<TRIPOS>MOLECULE
3R135
127   129    1
SMALL
USER_CHARGES


@<TRIPOS>ATOM
      1 CA        -78.5453   30.6575  -76.1984 C.3       0 UNK        -0.1998 
      2 C         -78.5514   29.2872  -75.5392 C.2       0 UNK         0.4909 
      3 O         -77.6783   28.4692  -75.8228 O.2       0 UNK        -0.5240 
      4 N         -79.5302   29.0223  -74.6640 N.am      1 UNK        -0.4739 
      5 CA        -79.6843   27.7488  -73.9487 C.3       1 UNK         0.0864 
      6 C6        -80.8074   27.8436  -72.8858 C.3       11 UNK        -0.0881 
      7 S7        -80.5852   26.6830  -71.4998 S.3       11 UNK        -0.2682 
      8 C8        -79.6968   27.7194  -70.2914 C.3       11 UNK         0.0289 
      9 C9        -78.2239   27.8579  -70.6478 C.ar      11 UNK        -0.0687 
     10 C10       -77.3681   26.7688  -70.4644 C.ar      11 UNK        -0.0823 
     11 C11       -76.0160   26.8600  -70.8048 C.ar      11 UNK        -0.0830 
     12 C12       -75.5160   28.0631  -71.3078 C.ar      11 UNK        -0.1021 
     13 C13       -76.3541   29.1684  -71.4737 C.ar      11 UNK        -0.0753 
     14 C14       -77.7118   29.0596  -71.1514 C.ar      11 UNK        -0.0933 
     15 C15       -75.7706   30.4819  -71.9702 C.3       11 UNK         0.0166 
     16 S16       -75.5570   30.4851  -73.7752 S.3       11 UNK        -0.2615 
     17 C17       -74.5928   32.0216  -73.9987 C.3       11 UNK        -0.0865 
     18 CA        -73.2943   31.8327  -74.8402 C.3       10 UNK         0.0862 
     19 C         -72.5160   33.1688  -75.0355 C.2       10 UNK         0.5551 
     20 N         -71.1890   33.1622  -75.0726 N.am      10 UNK        -0.7319 
     21 O         -73.1229   34.2267  -75.1856 O.2       10 UNK        -0.5018 
     22 N         -72.4600   30.6931  -74.4151 N.am      10 UNK        -0.4509 
     23 C         -71.9346   30.4915  -73.1972 C.2       10 UNK         0.4899 
     24 O         -72.0541   31.2808  -72.2598 O.2       10 UNK        -0.4839 
     25 CA        -71.1564   29.1783  -72.9899 C.3       9 UNK         0.0222 
     26 CB        -71.2104   28.6727  -71.5356 C.3       9 UNK        -0.1966 
     27 N         -71.6538   28.1381  -73.8938 N.am      9 UNK        -0.4218 
     28 C         -70.8918   27.3663  -74.6782 C.2       9 UNK         0.5020 
     29 O         -69.6613   27.3357  -74.6257 O.2       9 UNK        -0.5274 
     30 CA        -71.6166   26.4952  -75.7246 C.3       8 UNK         0.0270 
     31 CB        -71.7869   25.0615  -75.1977 C.3       8 UNK        -0.1976 
     32 N         -72.9160   27.0120  -76.1858 N.am      8 UNK        -0.4313 
     33 C         -73.1172   28.2115  -76.7548 C.2       8 UNK         0.5041 
     34 O         -72.2258   29.0528  -76.8804 O.2       8 UNK        -0.5577 
     35 CA        -74.5434   28.5840  -77.2019 C.3       7 UNK         0.0284 
     36 CB        -74.5568   29.3157  -78.5603 C.3       7 UNK        -0.1958 
     37 N         -75.5204   27.4899  -77.1799 N.am      7 UNK        -0.4454 
     38 C         -75.5742   26.4015  -77.9573 C.2       7 UNK         0.5089 
     39 O         -74.7275   26.1146  -78.8050 O.2       7 UNK        -0.5125 
     40 CA        -76.7826   25.4744  -77.7073 C.3       6 UNK         0.0408 
     41 CB        -76.8774   24.3219  -78.7287 C.3       6 UNK        -0.1791 
     42 N         -76.8204   24.9467  -76.3360 N.am      6 UNK        -0.4762 
     43 C         -75.8548   24.2448  -75.7190 C.2       6 UNK         0.5007 
     44 O         -74.7772   23.9620  -76.2403 O.2       6 UNK        -0.5032 
     45 CA        -76.1204   23.7677  -74.2831 C.3       5 UNK         0.0783 
     46 C46       -75.6940   24.8505  -73.2638 C.3       11 UNK        -0.0857 
     47 S47       -75.6765   24.2049  -71.5592 S.3       11 UNK        -0.2512 
     48 C48       -75.0952   25.6601  -70.6320 C.3       11 UNK         0.0225 
     49 N         -77.5212   23.3669  -74.1177 N.am      5 UNK        -0.4615 
     50 C         -77.9244   22.1830  -73.6423 C.2       4 UNK         0.5053 
     51 O         -77.1642   21.2697  -73.3182 O.2       4 UNK        -0.5105 
     52 CA        -79.4416   21.9803  -73.5099 C.3       4 UNK         0.0263 
     53 CB        -80.0195   22.8645  -72.3922 C.3       4 UNK        -0.1981 
     54 N         -80.1487   22.2477  -74.7617 N.am      4 UNK        -0.4224 
     55 C         -80.0702   21.5039  -75.8726 C.2       3 UNK         0.4895 
     56 O         -79.4110   20.4670  -75.9531 O.2       3 UNK        -0.5091 
     57 CA        -80.8471   21.9855  -77.1143 C.3       3 UNK         0.0250 
     58 CB        -82.2876   21.4362  -77.1164 C.3       3 UNK        -0.1996 
     59 N         -80.8174   23.4404  -77.3335 N.am      3 UNK        -0.4254 
     60 C         -81.3600   24.4122  -76.5867 C.2       2 UNK         0.5004 
     61 O         -82.0522   24.2159  -75.5851 O.2       2 UNK        -0.5226 
     62 CA        -81.0459   25.8520  -77.0245 C.3       2 UNK         0.0269 
     63 CB        -82.2010   26.4207  -77.8637 C.3       2 UNK        -0.1926 
     64 N         -80.7789   26.7569  -75.9019 N.am      2 UNK        -0.4687 
     65 C         -79.8816   26.5653  -74.9211 C.2       1 UNK         0.5165 
     66 O         -79.1687   25.5630  -74.8211 O.2       1 UNK        -0.5079 
     67 H67       -78.6765   30.5546  -77.2750 H         1 UNK         0.0900 
     68 H68       -77.5927   31.1546  -76.0181 H         1 UNK         0.0900 
     69 H69       -79.3398   31.2978  -75.8164 H         1 UNK         0.0900 
     70 H70       -80.2233   29.7303  -74.4688 H         1 UNK         0.2959 
     71 H71       -78.7351   27.5735  -73.4371 H         1 UNK         0.1079 
     72 H72       -81.7905   27.6757  -73.3301 H         1 UNK         0.0837 
     73 H73       -80.8496   28.8513  -72.4697 H         1 UNK         0.0837 
     74 H74       -80.1763   28.6958  -70.2082 H         1 UNK         0.0685 
     75 H75       -79.7820   27.2567  -69.3070 H         1 UNK         0.0685 
     76 H76       -77.7616   25.8382  -70.0781 H         1 UNK         0.1434 
     77 H77       -74.4717   28.1463  -71.5704 H         1 UNK         0.1329 
     78 H78       -78.3662   29.9096  -71.2875 H         1 UNK         0.1335 
     79 H79       -76.4089   31.3186  -71.6823 H         1 UNK         0.0680 
     80 H80       -74.8050   30.6489  -71.4898 H         1 UNK         0.0680 
     81 H81       -74.3476   32.4500  -73.0256 H         1 UNK         0.1032 
     82 H82       -75.2485   32.7487  -74.4810 H         1 UNK         0.1032 
     83 H83       -73.6173   31.5654  -75.8469 H         1 UNK         0.0461 
     84 H84       -70.6925   34.0284  -75.2094 H         1 UNK         0.3453 
     85 H85       -70.6819   32.2987  -74.9644 H         1 UNK         0.3453 
     86 H86       -72.2442   30.0318  -75.1555 H         1 UNK         0.2984 
     87 H87       -70.1165   29.4105  -73.2279 H         1 UNK         0.0554 
     88 H88       -70.6474   27.7468  -71.4178 H         1 UNK         0.0847 
     89 H89       -72.2323   28.4877  -71.2077 H         1 UNK         0.0847 
     90 H90       -70.7758   29.4018  -70.8506 H         1 UNK         0.0847 
     91 H91       -72.6563   28.0944  -74.0123 H         1 UNK         0.3141 
     92 H92       -70.9665   26.4548  -76.6010 H         1 UNK         0.0743 
     93 H93       -72.4805   25.0165  -74.3584 H         1 UNK         0.0784 
     94 H94       -72.1538   24.3943  -75.9776 H         1 UNK         0.0784 
     95 H95       -70.8345   24.6548  -74.8541 H         1 UNK         0.0784 
     96 H96       -73.6963   26.3702  -76.1554 H         1 UNK         0.3213 
     97 H97       -74.9012   29.2947  -76.4562 H         1 UNK         0.0855 
     98 H98       -73.9529   30.2232  -78.5234 H         1 UNK         0.0814 
     99 H99       -75.5674   29.6142  -78.8391 H         1 UNK         0.0814 
    100 H100      -74.1558   28.6931  -79.3604 H         1 UNK         0.0814 
    101 H101      -76.3072   27.6553  -76.5477 H         1 UNK         0.3105 
    102 H102      -77.6741   26.0922  -77.8238 H         1 UNK         0.0547 
    103 H103      -76.9435   24.7083  -79.7464 H         1 UNK         0.0837 
    104 H104      -76.0044   23.6696  -78.6866 H         1 UNK         0.0837 
    105 H105      -77.7604   23.7078  -78.5553 H         1 UNK         0.0837 
    106 H106      -77.6561   25.1797  -75.8045 H         1 UNK         0.3020 
    107 H107      -75.4714   22.9004  -74.1395 H         1 UNK         0.1245 
    108 H108      -76.3680   25.7082  -73.3172 H         1 UNK         0.0781 
    109 H109      -74.6945   25.2276  -73.4855 H         1 UNK         0.0781 
    110 H110      -74.0780   25.8971  -70.9483 H         1 UNK         0.0836 
    111 H111      -75.0373   25.4058  -69.5729 H         1 UNK         0.0836 
    112 H112      -78.2222   24.0671  -74.3480 H         1 UNK         0.3022 
    113 H113      -79.6171   20.9367  -73.2403 H         1 UNK         0.0747 
    114 H114      -81.0760   22.6538  -72.2259 H         1 UNK         0.0793 
    115 H115      -79.5005   22.6915  -71.4484 H         1 UNK         0.0793 
    116 H116      -79.9245   23.9255  -72.6256 H         1 UNK         0.0793 
    117 H117      -80.7435   23.0717  -74.7958 H         1 UNK         0.3047 
    118 H118      -80.3375   21.5543  -77.9778 H         1 UNK         0.0822 
    119 H119      -82.8199   21.7221  -78.0236 H         1 UNK         0.0807 
    120 H120      -82.8645   21.7919  -76.2624 H         1 UNK         0.0807 
    121 H121      -82.2864   20.3463  -77.0715 H         1 UNK         0.0807 
    122 H122      -80.2677   23.7240  -78.1326 H         1 UNK         0.2946 
    123 H123      -80.1448   25.8387  -77.6405 H         1 UNK         0.1144 
    124 H124      -82.4110   25.7845  -78.7247 H         1 UNK         0.0793 
    125 H125      -81.9641   27.4132  -78.2476 H         1 UNK         0.0793 
    126 H126      -83.1210   26.4951  -77.2821 H         1 UNK         0.0793 
    127 H127      -81.2956   27.6237  -75.8977 H         1 UNK         0.2896 
@<TRIPOS>BOND
     1    1    2 1    
     2    1   67 1    
     3    1   68 1    
     4    1   69 1    
     5    2    3 2    
     6    2    4 am   BACKBONE|DICT|INTERRES
     7    4    5 1    
     8    4   70 1    
     9    5    6 1    
    10    5   65 1    
    11    5   71 1    
    12    6    7 1    
    13    6   72 1    
    14    6   73 1    
    15    7    8 1    
    16    8    9 1    
    17    8   74 1    
    18    8   75 1    
    19    9   10 ar   
    20    9   14 ar   
    21   10   11 ar   
    22   10   76 1    
    23   11   12 ar   
    24   11   48 1    
    25   12   13 ar   
    26   12   77 1    
    27   13   14 ar   
    28   13   15 1    
    29   14   78 1    
    30   15   16 1    
    31   15   79 1    
    32   15   80 1    
    33   16   17 1    
    34   17   18 1    
    35   17   81 1    
    36   17   82 1    
    37   18   19 1    
    38   18   22 1    
    39   18   83 1    
    40   19   20 am   BACKBONE|DICT|INTERRES
    41   19   21 2    
    42   20   84 1    
    43   20   85 1    
    44   22   23 am   BACKBONE|DICT|INTERRES
    45   22   86 1    
    46   23   24 2    
    47   23   25 1    
    48   25   26 1    
    49   25   27 1    
    50   25   87 1    
    51   26   88 1    
    52   26   89 1    
    53   26   90 1    
    54   27   28 am   BACKBONE|DICT|INTERRES
    55   27   91 1    
    56   28   29 2    
    57   28   30 1    
    58   30   31 1    
    59   30   32 1    
    60   30   92 1    
    61   31   93 1    
    62   31   94 1    
    63   31   95 1    
    64   32   33 am   BACKBONE|DICT|INTERRES
    65   32   96 1    
    66   33   34 2    
    67   33   35 1    
    68   35   36 1    
    69   35   37 1    
    70   35   97 1    
    71   36   98 1    
    72   36   99 1    
    73   36  100 1    
    74   37   38 am   BACKBONE|DICT|INTERRES
    75   37  101 1    
    76   38   39 2    
    77   38   40 1    
    78   40   41 1    
    79   40   42 1    
    80   40  102 1    
    81   41  103 1    
    82   41  104 1    
    83   41  105 1    
    84   42   43 am   BACKBONE|DICT|INTERRES
    85   42  106 1    
    86   43   44 2    
    87   43   45 1    
    88   45   46 1    
    89   45   49 1    
    90   45  107 1    
    91   46   47 1    
    92   46  108 1    
    93   46  109 1    
    94   47   48 1    
    95   48  110 1    
    96   48  111 1    
    97   49   50 am   BACKBONE|DICT|INTERRES
    98   49  112 1    
    99   50   51 2    
   100   50   52 1    
   101   52   53 1    
   102   52   54 1    
   103   52  113 1    
   104   53  114 1    
   105   53  115 1    
   106   53  116 1    
   107   54   55 am   BACKBONE|DICT|INTERRES
   108   54  117 1    
   109   55   56 2    
   110   55   57 1    
   111   57   58 1    
   112   57   59 1    
   113   57  118 1    
   114   58  119 1    
   115   58  120 1    
   116   58  121 1    
   117   59   60 am   BACKBONE|DICT|INTERRES
   118   59  122 1    
   119   60   61 2    
   120   60   62 1    
   121   62   63 1    
   122   62   64 1    
   123   62  123 1    
   124   63  124 1    
   125   63  125 1    
   126   63  126 1    
   127   64   65 am   BACKBONE|DICT|INTERRES
   128   64  127 1    
   129   65   66 2    
@<TRIPOS>SUBSTRUCTURE
     1 UNK         1 GROUP             0       ****    0 ROOT    
