@<TRIPOS>MOLECULE
3R135
127   129    1
SMALL
USER_CHARGES


@<TRIPOS>ATOM
      1 CA        -80.8258   29.2489  -77.1206 C.3       0 UNK        -0.1998 
      2 C         -80.5116   28.5057  -75.8319 C.2       0 UNK         0.4909 
      3 O         -79.4022   27.9992  -75.6654 O.2       0 UNK        -0.5240 
      4 N         -81.4817   28.4237  -74.9159 N.am      1 UNK        -0.4739 
      5 CA        -81.3558   27.7448  -73.6220 C.3       1 UNK         0.0864 
      6 C6        -82.2503   28.4024  -72.5371 C.3       11 UNK        -0.0881 
      7 S7        -81.9187   30.1920  -72.3373 S.3       11 UNK        -0.2682 
      8 C8        -81.0841   30.2885  -70.7202 C.3       11 UNK         0.0289 
      9 C9        -79.6344   29.8292  -70.7888 C.ar      11 UNK        -0.0687 
     10 C10       -79.3014   28.5154  -70.4497 C.ar      11 UNK        -0.0823 
     11 C11       -77.9750   28.0848  -70.5212 C.ar      11 UNK        -0.0830 
     12 C12       -76.9725   28.9867  -70.8807 C.ar      11 UNK        -0.1021 
     13 C13       -77.2904   30.2940  -71.2519 C.ar      11 UNK        -0.0753 
     14 C14       -78.6259   30.7131  -71.1949 C.ar      11 UNK        -0.0933 
     15 C15       -76.1944   31.2399  -71.7320 C.3       11 UNK         0.0166 
     16 S16       -75.1544   30.4998  -73.0448 S.3       11 UNK        -0.2615 
     17 C17       -73.5229   30.3488  -72.2274 C.3       11 UNK        -0.0865 
     18 CA        -72.6842   29.0979  -72.6307 C.3       10 UNK         0.0862 
     19 C         -73.0817   27.7764  -71.9152 C.2       10 UNK         0.5551 
     20 N         -72.8733   26.6194  -72.5291 N.am      10 UNK        -0.7319 
     21 O         -73.5555   27.7911  -70.7827 O.2       10 UNK        -0.5018 
     22 N         -72.5197   28.9557  -74.0885 N.am      10 UNK        -0.4509 
     23 C         -71.5909   29.5870  -74.8162 C.2       10 UNK         0.4899 
     24 O         -70.7617   30.3588  -74.3304 O.2       10 UNK        -0.4839 
     25 CA        -71.5947   29.3432  -76.3409 C.3       9 UNK         0.0222 
     26 CB        -70.2473   29.6968  -77.0067 C.3       9 UNK        -0.1966 
     27 N         -72.0344   28.0020  -76.7460 N.am      9 UNK        -0.4218 
     28 C         -71.4678   26.8206  -76.4454 C.2       9 UNK         0.5020 
     29 O         -70.4602   26.7083  -75.7461 O.2       9 UNK        -0.5274 
     30 CA        -72.1346   25.5456  -77.0063 C.3       8 UNK         0.0270 
     31 CB        -72.2216   24.4396  -75.9386 C.3       8 UNK        -0.1976 
     32 N         -73.4844   25.8204  -77.5008 N.am      8 UNK        -0.4313 
     33 C         -73.8704   25.8237  -78.7844 C.2       8 UNK         0.5041 
     34 O         -73.1402   25.4909  -79.7186 O.2       8 UNK        -0.5577 
     35 CA        -75.3012   26.3163  -79.0938 C.3       7 UNK         0.0284 
     36 CB        -76.2406   25.1365  -79.3823 C.3       7 UNK        -0.1958 
     37 N         -75.8836   27.1398  -78.0298 N.am      7 UNK        -0.4454 
     38 C         -75.4224   28.3414  -77.6580 C.2       7 UNK         0.5089 
     39 O         -74.5058   28.9281  -78.2324 O.2       7 UNK        -0.5125 
     40 CA        -76.0133   28.9454  -76.3752 C.3       6 UNK         0.0408 
     41 CB        -77.1271   29.9444  -76.7139 C.3       6 UNK        -0.1791 
     42 N         -76.4969   27.9376  -75.4176 N.am      6 UNK        -0.4762 
     43 C         -75.6907   27.0648  -74.7890 C.2       6 UNK         0.5007 
     44 O         -74.4914   26.9767  -75.0545 O.2       6 UNK        -0.5032 
     45 CA        -76.2676   26.1464  -73.6952 C.3       5 UNK         0.0783 
     46 C46       -77.6694   26.5560  -73.2035 C.3       11 UNK        -0.0857 
     47 S47       -78.2162   25.6109  -71.7332 S.3       11 UNK        -0.2512 
     48 C48       -77.6293   26.6192  -70.3293 C.3       11 UNK         0.0225 
     49 N         -76.2551   24.7663  -74.1795 N.am      5 UNK        -0.4615 
     50 C         -75.4113   23.8139  -73.7610 C.2       4 UNK         0.5053 
     51 O         -74.4953   24.0205  -72.9641 O.2       4 UNK        -0.5105 
     52 CA        -75.6313   22.3758  -74.2730 C.3       4 UNK         0.0263 
     53 CB        -75.7573   21.3932  -73.0947 C.3       4 UNK        -0.1981 
     54 N         -76.8263   22.2452  -75.1107 N.am      4 UNK        -0.4224 
     55 C         -76.8393   22.2825  -76.4492 C.2       3 UNK         0.4895 
     56 O         -75.8240   22.3670  -77.1393 O.2       3 UNK        -0.5091 
     57 CA        -78.2180   22.2276  -77.1419 C.3       3 UNK         0.0250 
     58 CB        -78.4977   20.8082  -77.6619 C.3       3 UNK        -0.1996 
     59 N         -79.3448   22.6649  -76.3039 N.am      3 UNK        -0.4254 
     60 C         -79.4882   23.8986  -75.8003 C.2       2 UNK         0.5004 
     61 O         -78.6678   24.8017  -75.9894 O.2       2 UNK        -0.5226 
     62 CA        -80.7086   24.1411  -74.8942 C.3       2 UNK         0.0269 
     63 CB        -80.6084   23.2668  -73.6237 C.3       2 UNK        -0.1926 
     64 N         -80.7470   25.5651  -74.5582 N.am      2 UNK        -0.4687 
     65 C         -81.6282   26.2326  -73.8032 C.2       1 UNK         0.5165 
     66 O         -82.6297   25.7182  -73.3021 O.2       1 UNK        -0.5079 
     67 H67       -80.4973   28.6649  -77.9800 H         1 UNK         0.0900 
     68 H68       -81.8934   29.4387  -77.2290 H         1 UNK         0.0900 
     69 H69       -80.3059   30.2061  -77.1372 H         1 UNK         0.0900 
     70 H70       -82.3799   28.8471  -75.0997 H         1 UNK         0.2959 
     71 H71       -80.3251   27.8393  -73.2731 H         1 UNK         0.1079 
     72 H72       -82.1195   27.8981  -71.5784 H         1 UNK         0.0837 
     73 H73       -83.3052   28.2885  -72.7936 H         1 UNK         0.0837 
     74 H74       -81.1173   31.3227  -70.3744 H         1 UNK         0.0685 
     75 H75       -81.6405   29.7079  -69.9828 H         1 UNK         0.0685 
     76 H76       -80.0762   27.8145  -70.1711 H         1 UNK         0.1434 
     77 H77       -75.9479   28.6512  -70.9428 H         1 UNK         0.1329 
     78 H78       -78.8859   31.7244  -71.4761 H         1 UNK         0.1335 
     79 H79       -76.6354   32.1540  -72.1323 H         1 UNK         0.0680 
     80 H80       -75.5879   31.5458  -70.8793 H         1 UNK         0.0680 
     81 H81       -72.9568   31.2469  -72.4783 H         1 UNK         0.1032 
     82 H82       -73.6434   30.3845  -71.1436 H         1 UNK         0.1032 
     83 H83       -71.6881   29.2723  -72.2197 H         1 UNK         0.0461 
     84 H84       -72.4810   26.5988  -73.4562 H         1 UNK         0.3453 
     85 H85       -73.1553   25.7554  -72.0900 H         1 UNK         0.3453 
     86 H86       -73.1752   28.3255  -74.5421 H         1 UNK         0.2984 
     87 H87       -72.3420   30.0291  -76.7419 H         1 UNK         0.0554 
     88 H88       -70.2862   29.5478  -78.0857 H         1 UNK         0.0847 
     89 H89       -69.4307   29.0908  -76.6130 H         1 UNK         0.0847 
     90 H90       -69.9868   30.7422  -76.8368 H         1 UNK         0.0847 
     91 H91       -72.8634   27.9933  -77.3295 H         1 UNK         0.3141 
     92 H92       -71.4993   25.1866  -77.8182 H         1 UNK         0.0743 
     93 H93       -72.7762   24.7723  -75.0610 H         1 UNK         0.0784 
     94 H94       -72.7161   23.5495  -76.3284 H         1 UNK         0.0784 
     95 H95       -71.2292   24.1372  -75.6021 H         1 UNK         0.0784 
     96 H96       -74.1373   26.1361  -76.7892 H         1 UNK         0.3213 
     97 H97       -75.2391   26.9300  -79.9952 H         1 UNK         0.0855 
     98 H98       -76.4050   24.5353  -78.4899 H         1 UNK         0.0814 
     99 H99       -75.8266   24.4801  -80.1490 H         1 UNK         0.0814 
    100 H100      -77.2121   25.4795  -79.7384 H         1 UNK         0.0814 
    101 H101      -76.6379   26.7353  -77.4913 H         1 UNK         0.3105 
    102 H102      -75.2115   29.4996  -75.8833 H         1 UNK         0.0547 
    103 H103      -76.7335   30.7811  -77.2924 H         1 UNK         0.0837 
    104 H104      -77.9108   29.4804  -77.3118 H         1 UNK         0.0837 
    105 H105      -77.5821   30.3570  -75.8131 H         1 UNK         0.0837 
    106 H106      -77.4996   27.9307  -75.2432 H         1 UNK         0.3020 
    107 H107      -75.5937   26.2511  -72.8434 H         1 UNK         0.1245 
    108 H108      -78.3884   26.3669  -73.9905 H         1 UNK         0.0781 
    109 H109      -77.7308   27.6273  -73.0233 H         1 UNK         0.0781 
    110 H110      -76.5514   26.4848  -70.2223 H         1 UNK         0.0836 
    111 H111      -78.0796   26.2506  -69.4067 H         1 UNK         0.0836 
    112 H112      -76.9686   24.5387  -74.8627 H         1 UNK         0.3022 
    113 H113      -74.7433   22.1028  -74.8470 H         1 UNK         0.0747 
    114 H114      -75.8896   20.3692  -73.4445 H         1 UNK         0.0793 
    115 H115      -74.8603   21.4062  -72.4740 H         1 UNK         0.0793 
    116 H116      -76.6023   21.6414  -72.4511 H         1 UNK         0.0793 
    117 H117      -77.7091   22.1680  -74.6272 H         1 UNK         0.3047 
    118 H118      -78.1712   22.8996  -78.0012 H         1 UNK         0.0822 
    119 H119      -78.5841   20.0887  -76.8466 H         1 UNK         0.0807 
    120 H120      -77.6930   20.4656  -78.3143 H         1 UNK         0.0807 
    121 H121      -79.4192   20.7716  -78.2433 H         1 UNK         0.0807 
    122 H122      -80.0524   21.9717  -76.1053 H         1 UNK         0.2946 
    123 H123      -81.6141   23.8920  -75.4508 H         1 UNK         0.1144 
    124 H124      -81.4503   23.4234  -72.9504 H         1 UNK         0.0793 
    125 H125      -79.6952   23.4709  -73.0654 H         1 UNK         0.0793 
    126 H126      -80.6063   22.2048  -73.8703 H         1 UNK         0.0793 
    127 H127      -79.9972   26.0967  -74.9955 H         1 UNK         0.2896 
@<TRIPOS>BOND
     1    1    2 1    
     2    1   67 1    
     3    1   68 1    
     4    1   69 1    
     5    2    3 2    
     6    2    4 am   BACKBONE|DICT|INTERRES
     7    4    5 1    
     8    4   70 1    
     9    5    6 1    
    10    5   65 1    
    11    5   71 1    
    12    6    7 1    
    13    6   72 1    
    14    6   73 1    
    15    7    8 1    
    16    8    9 1    
    17    8   74 1    
    18    8   75 1    
    19    9   10 ar   
    20    9   14 ar   
    21   10   11 ar   
    22   10   76 1    
    23   11   12 ar   
    24   11   48 1    
    25   12   13 ar   
    26   12   77 1    
    27   13   14 ar   
    28   13   15 1    
    29   14   78 1    
    30   15   16 1    
    31   15   79 1    
    32   15   80 1    
    33   16   17 1    
    34   17   18 1    
    35   17   81 1    
    36   17   82 1    
    37   18   19 1    
    38   18   22 1    
    39   18   83 1    
    40   19   20 am   BACKBONE|DICT|INTERRES
    41   19   21 2    
    42   20   84 1    
    43   20   85 1    
    44   22   23 am   BACKBONE|DICT|INTERRES
    45   22   86 1    
    46   23   24 2    
    47   23   25 1    
    48   25   26 1    
    49   25   27 1    
    50   25   87 1    
    51   26   88 1    
    52   26   89 1    
    53   26   90 1    
    54   27   28 am   BACKBONE|DICT|INTERRES
    55   27   91 1    
    56   28   29 2    
    57   28   30 1    
    58   30   31 1    
    59   30   32 1    
    60   30   92 1    
    61   31   93 1    
    62   31   94 1    
    63   31   95 1    
    64   32   33 am   BACKBONE|DICT|INTERRES
    65   32   96 1    
    66   33   34 2    
    67   33   35 1    
    68   35   36 1    
    69   35   37 1    
    70   35   97 1    
    71   36   98 1    
    72   36   99 1    
    73   36  100 1    
    74   37   38 am   BACKBONE|DICT|INTERRES
    75   37  101 1    
    76   38   39 2    
    77   38   40 1    
    78   40   41 1    
    79   40   42 1    
    80   40  102 1    
    81   41  103 1    
    82   41  104 1    
    83   41  105 1    
    84   42   43 am   BACKBONE|DICT|INTERRES
    85   42  106 1    
    86   43   44 2    
    87   43   45 1    
    88   45   46 1    
    89   45   49 1    
    90   45  107 1    
    91   46   47 1    
    92   46  108 1    
    93   46  109 1    
    94   47   48 1    
    95   48  110 1    
    96   48  111 1    
    97   49   50 am   BACKBONE|DICT|INTERRES
    98   49  112 1    
    99   50   51 2    
   100   50   52 1    
   101   52   53 1    
   102   52   54 1    
   103   52  113 1    
   104   53  114 1    
   105   53  115 1    
   106   53  116 1    
   107   54   55 am   BACKBONE|DICT|INTERRES
   108   54  117 1    
   109   55   56 2    
   110   55   57 1    
   111   57   58 1    
   112   57   59 1    
   113   57  118 1    
   114   58  119 1    
   115   58  120 1    
   116   58  121 1    
   117   59   60 am   BACKBONE|DICT|INTERRES
   118   59  122 1    
   119   60   61 2    
   120   60   62 1    
   121   62   63 1    
   122   62   64 1    
   123   62  123 1    
   124   63  124 1    
   125   63  125 1    
   126   63  126 1    
   127   64   65 am   BACKBONE|DICT|INTERRES
   128   64  127 1    
   129   65   66 2    
@<TRIPOS>SUBSTRUCTURE
     1 UNK         1 GROUP             0       ****    0 ROOT    
