@<TRIPOS>MOLECULE
3R135
127   129    1
SMALL
USER_CHARGES


@<TRIPOS>ATOM
      1 CA        -81.5289   25.5263  -70.1437 C.3       0 UNK        -0.1998 
      2 C         -82.4244   26.1592  -71.1978 C.2       0 UNK         0.4909 
      3 O         -83.5686   25.7365  -71.3644 O.2       0 UNK        -0.5240 
      4 N         -81.9130   27.1733  -71.9077 N.am      1 UNK        -0.4739 
      5 CA        -82.6039   27.8751  -72.9984 C.3       1 UNK         0.0864 
      6 C6        -81.9308   29.2335  -73.3312 C.3       11 UNK        -0.0881 
      7 S7        -80.1406   29.1037  -73.6833 S.3       11 UNK        -0.2682 
      8 C8        -79.4257   29.7365  -72.1338 C.3       11 UNK         0.0289 
      9 C9        -78.0398   29.1557  -71.9133 C.ar      11 UNK        -0.0687 
     10 C10       -77.9041   27.8890  -71.3408 C.ar      11 UNK        -0.0823 
     11 C11       -76.6422   27.3096  -71.1791 C.ar      11 UNK        -0.0830 
     12 C12       -75.5114   28.0432  -71.5507 C.ar      11 UNK        -0.1021 
     13 C13       -75.6221   29.3270  -72.0948 C.ar      11 UNK        -0.0753 
     14 C14       -76.8992   29.8729  -72.2845 C.ar      11 UNK        -0.0933 
     15 C15       -74.3278   30.0706  -72.4329 C.3       11 UNK         0.0166 
     16 S16       -74.5069   31.6979  -73.2488 S.3       11 UNK        -0.2615 
     17 C17       -74.8173   31.2155  -74.9861 C.3       11 UNK        -0.0865 
     18 CA        -73.5612   31.2872  -75.8983 C.3       10 UNK         0.0862 
     19 C         -73.1447   32.7491  -76.2279 C.2       10 UNK         0.5551 
     20 N         -73.8698   33.4074  -77.1224 N.am      10 UNK        -0.7319 
     21 O         -72.1962   33.2994  -75.6705 O.2       10 UNK        -0.5018 
     22 N         -72.4729   30.4744  -75.3454 N.am      10 UNK        -0.4509 
     23 C         -71.3683   30.0855  -75.9889 C.2       10 UNK         0.4899 
     24 O         -71.1205   30.3314  -77.1696 O.2       10 UNK        -0.4839 
     25 CA        -70.3963   29.2395  -75.1625 C.3       9 UNK         0.0222 
     26 CB        -69.9437   29.9882  -73.8880 C.3       9 UNK        -0.1966 
     27 N         -71.0299   27.9563  -74.8488 N.am      9 UNK        -0.4218 
     28 C         -70.4115   26.8991  -74.3010 C.2       9 UNK         0.5020 
     29 O         -69.2286   26.9006  -73.9564 O.2       9 UNK        -0.5274 
     30 CA        -71.2332   25.6094  -74.1011 C.3       8 UNK         0.0270 
     31 CB        -71.8455   25.5840  -72.6913 C.3       8 UNK        -0.1976 
     32 N         -72.2936   25.4181  -75.0937 N.am      8 UNK        -0.4313 
     33 C         -72.0910   25.2680  -76.4125 C.2       8 UNK         0.5041 
     34 O         -70.9720   25.1615  -76.9168 O.2       8 UNK        -0.5577 
     35 CA        -73.3229   25.2503  -77.3424 C.3       7 UNK         0.0284 
     36 CB        -73.5880   23.8200  -77.8420 C.3       7 UNK        -0.1958 
     37 N         -74.5580   25.7902  -76.7620 N.am      7 UNK        -0.4454 
     38 C         -74.7124   27.0041  -76.2138 C.2       7 UNK         0.5089 
     39 O         -73.8263   27.8563  -76.1848 O.2       7 UNK        -0.5125 
     40 CA        -76.0459   27.2897  -75.5024 C.3       6 UNK         0.0408 
     41 CB        -77.0285   27.9946  -76.4472 C.3       6 UNK        -0.1791 
     42 N         -76.6873   26.1087  -74.9175 N.am      6 UNK        -0.4762 
     43 C         -76.1350   25.2919  -74.0051 C.2       6 UNK         0.5007 
     44 O         -74.9656   25.3715  -73.6260 O.2       6 UNK        -0.5032 
     45 CA        -77.0424   24.1738  -73.4635 C.3       5 UNK         0.0783 
     46 C46       -78.1944   24.7377  -72.5867 C.3       11 UNK        -0.0857 
     47 S47       -77.8516   24.7473  -70.7932 S.3       11 UNK        -0.2512 
     48 C48       -76.4508   25.9098  -70.5915 C.3       11 UNK         0.0225 
     49 N         -77.5543   23.4006  -74.5938 N.am      5 UNK        -0.4615 
     50 C         -76.8743   22.4369  -75.2286 C.2       4 UNK         0.5053 
     51 O         -75.7875   22.0022  -74.8485 O.2       4 UNK        -0.5105 
     52 CA        -77.5034   21.8634  -76.5126 C.3       4 UNK         0.0263 
     53 CB        -78.2717   20.5691  -76.2009 C.3       4 UNK        -0.1981 
     54 N         -78.3981   22.8014  -77.1979 N.am      4 UNK        -0.4224 
     55 C         -78.0089   23.9506  -77.7690 C.2       3 UNK         0.4895 
     56 O         -76.8411   24.3327  -77.8149 O.2       3 UNK        -0.5091 
     57 CA        -79.1177   24.8535  -78.3351 C.3       3 UNK         0.0250 
     58 CB        -79.4437   24.4600  -79.7845 C.3       3 UNK        -0.1996 
     59 N         -80.3496   24.8588  -77.5366 N.am      3 UNK        -0.4254 
     60 C         -80.4295   25.2001  -76.2429 C.2       2 UNK         0.5004 
     61 O         -79.4551   25.4976  -75.5451 O.2       2 UNK        -0.5226 
     62 CA        -81.8217   25.1376  -75.6090 C.3       2 UNK         0.0269 
     63 CB        -82.1178   23.7114  -75.1149 C.3       2 UNK        -0.1926 
     64 N         -81.8623   26.0481  -74.4692 N.am      2 UNK        -0.4687 
     65 C         -82.7809   26.9984  -74.2586 C.2       1 UNK         0.5165 
     66 O         -83.7456   27.1940  -75.0001 O.2       1 UNK        -0.5079 
     67 H67       -81.2100   24.5360  -70.4679 H         1 UNK         0.0900 
     68 H68       -80.6391   26.1246  -69.9510 H         1 UNK         0.0900 
     69 H69       -82.0702   25.4197  -69.2041 H         1 UNK         0.0900 
     70 H70       -80.9666   27.4780  -71.7387 H         1 UNK         0.2959 
     71 H71       -83.6150   28.0952  -72.6477 H         1 UNK         0.1079 
     72 H72       -82.0850   29.9280  -72.5040 H         1 UNK         0.0837 
     73 H73       -82.4173   29.7031  -74.1886 H         1 UNK         0.0837 
     74 H74       -80.0639   29.4790  -71.2873 H         1 UNK         0.0685 
     75 H75       -79.3892   30.8264  -72.1716 H         1 UNK         0.0685 
     76 H76       -78.7884   27.3478  -71.0413 H         1 UNK         0.1434 
     77 H77       -74.5303   27.6091  -71.4126 H         1 UNK         0.1329 
     78 H78       -77.0211   30.8563  -72.7142 H         1 UNK         0.1335 
     79 H79       -73.7004   29.4253  -73.0487 H         1 UNK         0.0680 
     80 H80       -73.7804   30.2293  -71.5027 H         1 UNK         0.0680 
     81 H81       -75.6166   31.8447  -75.3815 H         1 UNK         0.1032 
     82 H82       -75.2195   30.2030  -75.0040 H         1 UNK         0.1032 
     83 H83       -73.8300   30.8226  -76.8495 H         1 UNK         0.0461 
     84 H84       -74.6503   32.9709  -77.5877 H         1 UNK         0.3453 
     85 H85       -73.6248   34.3598  -77.3447 H         1 UNK         0.3453 
     86 H86       -72.5567   30.2620  -74.3644 H         1 UNK         0.2984 
     87 H87       -69.5186   29.0452  -75.7824 H         1 UNK         0.0554 
     88 H88       -69.6205   31.0030  -74.1246 H         1 UNK         0.0847 
     89 H89       -69.0987   29.4923  -73.4111 H         1 UNK         0.0847 
     90 H90       -70.7417   30.0627  -73.1488 H         1 UNK         0.0847 
     91 H91       -71.9892   27.8518  -75.1711 H         1 UNK         0.3141 
     92 H92       -70.5453   24.7660  -74.1899 H         1 UNK         0.0743 
     93 H93       -71.0739   25.6869  -71.9270 H         1 UNK         0.0784 
     94 H94       -72.5585   26.3970  -72.5481 H         1 UNK         0.0784 
     95 H95       -72.3670   24.6456  -72.5012 H         1 UNK         0.0784 
     96 H96       -73.2487   25.4642  -74.7495 H         1 UNK         0.3213 
     97 H97       -73.0747   25.8743  -78.2031 H         1 UNK         0.0855 
     98 H98       -73.9329   23.1705  -77.0361 H         1 UNK         0.0814 
     99 H99       -72.6846   23.3732  -78.2595 H         1 UNK         0.0814 
    100 H100      -74.3418   23.8082  -78.6291 H         1 UNK         0.0814 
    101 H101      -75.3747   25.1870  -76.8070 H         1 UNK         0.3105 
    102 H102      -75.8305   27.9641  -74.6728 H         1 UNK         0.0547 
    103 H103      -77.9542   28.2568  -75.9339 H         1 UNK         0.0837 
    104 H104      -77.2816   27.3665  -77.3005 H         1 UNK         0.0837 
    105 H105      -76.6002   28.9183  -76.8380 H         1 UNK         0.0837 
    106 H106      -77.6576   25.9468  -75.1789 H         1 UNK         0.3020 
    107 H107      -76.4257   23.5121  -72.8504 H         1 UNK         0.1245 
    108 H108      -79.0795   24.1097  -72.7017 H         1 UNK         0.0781 
    109 H109      -78.5206   25.7271  -72.9109 H         1 UNK         0.0781 
    110 H110      -75.5592   25.4458  -71.0148 H         1 UNK         0.0836 
    111 H111      -76.2526   26.0165  -69.5244 H         1 UNK         0.0836 
    112 H112      -78.4074   23.7492  -75.0122 H         1 UNK         0.3022 
    113 H113      -76.6859   21.6226  -77.1957 H         1 UNK         0.0747 
    114 H114      -78.6526   20.1041  -77.1104 H         1 UNK         0.0793 
    115 H115      -77.6239   19.8389  -75.7135 H         1 UNK         0.0793 
    116 H116      -79.1166   20.7505  -75.5352 H         1 UNK         0.0793 
    117 H117      -79.3807   22.5702  -77.2101 H         1 UNK         0.3047 
    118 H118      -78.7335   25.8745  -78.3423 H         1 UNK         0.0822 
    119 H119      -80.1494   25.1573  -80.2366 H         1 UNK         0.0807 
    120 H120      -79.8727   23.4591  -79.8469 H         1 UNK         0.0807 
    121 H121      -78.5443   24.4680  -80.4023 H         1 UNK         0.0807 
    122 H122      -81.1982   24.6093  -78.0247 H         1 UNK         0.2946 
    123 H123      -82.5608   25.4266  -76.3599 H         1 UNK         0.1144 
    124 H124      -81.3802   23.3746  -74.3849 H         1 UNK         0.0793 
    125 H125      -82.1133   22.9980  -75.9398 H         1 UNK         0.0793 
    126 H126      -83.0998   23.6544  -74.6446 H         1 UNK         0.0793 
    127 H127      -81.0517   26.0218  -73.8667 H         1 UNK         0.2896 
@<TRIPOS>BOND
     1    1    2 1    
     2    1   67 1    
     3    1   68 1    
     4    1   69 1    
     5    2    3 2    
     6    2    4 am   BACKBONE|DICT|INTERRES
     7    4    5 1    
     8    4   70 1    
     9    5    6 1    
    10    5   65 1    
    11    5   71 1    
    12    6    7 1    
    13    6   72 1    
    14    6   73 1    
    15    7    8 1    
    16    8    9 1    
    17    8   74 1    
    18    8   75 1    
    19    9   10 ar   
    20    9   14 ar   
    21   10   11 ar   
    22   10   76 1    
    23   11   12 ar   
    24   11   48 1    
    25   12   13 ar   
    26   12   77 1    
    27   13   14 ar   
    28   13   15 1    
    29   14   78 1    
    30   15   16 1    
    31   15   79 1    
    32   15   80 1    
    33   16   17 1    
    34   17   18 1    
    35   17   81 1    
    36   17   82 1    
    37   18   19 1    
    38   18   22 1    
    39   18   83 1    
    40   19   20 am   BACKBONE|DICT|INTERRES
    41   19   21 2    
    42   20   84 1    
    43   20   85 1    
    44   22   23 am   BACKBONE|DICT|INTERRES
    45   22   86 1    
    46   23   24 2    
    47   23   25 1    
    48   25   26 1    
    49   25   27 1    
    50   25   87 1    
    51   26   88 1    
    52   26   89 1    
    53   26   90 1    
    54   27   28 am   BACKBONE|DICT|INTERRES
    55   27   91 1    
    56   28   29 2    
    57   28   30 1    
    58   30   31 1    
    59   30   32 1    
    60   30   92 1    
    61   31   93 1    
    62   31   94 1    
    63   31   95 1    
    64   32   33 am   BACKBONE|DICT|INTERRES
    65   32   96 1    
    66   33   34 2    
    67   33   35 1    
    68   35   36 1    
    69   35   37 1    
    70   35   97 1    
    71   36   98 1    
    72   36   99 1    
    73   36  100 1    
    74   37   38 am   BACKBONE|DICT|INTERRES
    75   37  101 1    
    76   38   39 2    
    77   38   40 1    
    78   40   41 1    
    79   40   42 1    
    80   40  102 1    
    81   41  103 1    
    82   41  104 1    
    83   41  105 1    
    84   42   43 am   BACKBONE|DICT|INTERRES
    85   42  106 1    
    86   43   44 2    
    87   43   45 1    
    88   45   46 1    
    89   45   49 1    
    90   45  107 1    
    91   46   47 1    
    92   46  108 1    
    93   46  109 1    
    94   47   48 1    
    95   48  110 1    
    96   48  111 1    
    97   49   50 am   BACKBONE|DICT|INTERRES
    98   49  112 1    
    99   50   51 2    
   100   50   52 1    
   101   52   53 1    
   102   52   54 1    
   103   52  113 1    
   104   53  114 1    
   105   53  115 1    
   106   53  116 1    
   107   54   55 am   BACKBONE|DICT|INTERRES
   108   54  117 1    
   109   55   56 2    
   110   55   57 1    
   111   57   58 1    
   112   57   59 1    
   113   57  118 1    
   114   58  119 1    
   115   58  120 1    
   116   58  121 1    
   117   59   60 am   BACKBONE|DICT|INTERRES
   118   59  122 1    
   119   60   61 2    
   120   60   62 1    
   121   62   63 1    
   122   62   64 1    
   123   62  123 1    
   124   63  124 1    
   125   63  125 1    
   126   63  126 1    
   127   64   65 am   BACKBONE|DICT|INTERRES
   128   64  127 1    
   129   65   66 2    
@<TRIPOS>SUBSTRUCTURE
     1 UNK         1 GROUP             0       ****    0 ROOT    
