@<TRIPOS>MOLECULE
3R135
127   129    1
SMALL
USER_CHARGES


@<TRIPOS>ATOM
      1 CA        -86.4732   29.4694  -76.3846 C.3       0 UNK        -0.1998 
      2 C         -85.2012   29.3938  -75.5523 C.2       0 UNK         0.4909 
      3 O         -85.2431   29.6957  -74.3596 O.2       0 UNK        -0.5240 
      4 N         -84.0846   29.0074  -76.1874 N.am      1 UNK        -0.4739 
      5 CA        -82.7467   28.7862  -75.6200 C.3       1 UNK         0.0864 
      6 C6        -82.2128   29.9828  -74.7853 C.3       11 UNK        -0.0881 
      7 S7        -80.4037   29.9237  -74.5515 S.3       11 UNK        -0.2682 
      8 C8        -80.2901   29.7968  -72.7373 C.3       11 UNK         0.0289 
      9 C9        -78.9477   29.2365  -72.2880 C.ar      11 UNK        -0.0687 
     10 C10       -78.8932   28.0247  -71.5930 C.ar      11 UNK        -0.0823 
     11 C11       -77.6682   27.4907  -71.1871 C.ar      11 UNK        -0.0830 
     12 C12       -76.4940   28.1920  -71.4636 C.ar      11 UNK        -0.1021 
     13 C13       -76.5252   29.4010  -72.1641 C.ar      11 UNK        -0.0753 
     14 C14       -77.7603   29.9224  -72.5646 C.ar      11 UNK        -0.0933 
     15 C15       -75.2354   30.1105  -72.5633 C.3       11 UNK         0.0166 
     16 S16       -74.1047   30.4501  -71.1708 S.3       11 UNK        -0.2615 
     17 C17       -72.9737   29.0101  -71.1829 C.3       11 UNK        -0.0865 
     18 CA        -71.7357   29.2232  -72.0897 C.3       10 UNK         0.0862 
     19 C         -70.6679   28.1308  -71.8338 C.2       10 UNK         0.5551 
     20 N         -69.5630   28.4788  -71.1893 N.am      10 UNK        -0.7319 
     21 O         -70.8518   26.9645  -72.1763 O.2       10 UNK        -0.5018 
     22 N         -72.1204   29.2030  -73.5032 N.am      10 UNK        -0.4509 
     23 C         -71.6602   30.0365  -74.4412 C.2       10 UNK         0.4899 
     24 O         -70.8712   30.9569  -74.2191 O.2       10 UNK        -0.4839 
     25 CA        -72.1848   29.7921  -75.8688 C.3       9 UNK         0.0222 
     26 CB        -71.4897   30.6664  -76.9342 C.3       9 UNK        -0.1966 
     27 N         -72.1477   28.3742  -76.2437 N.am      9 UNK        -0.4218 
     28 C         -71.0674   27.5800  -76.3261 C.2       9 UNK         0.5020 
     29 O         -69.9140   27.9697  -76.1374 O.2       9 UNK        -0.5274 
     30 CA        -71.2926   26.0920  -76.6609 C.3       8 UNK         0.0270 
     31 CB        -70.9471   25.2186  -75.4427 C.3       8 UNK        -0.1976 
     32 N         -72.6554   25.7771  -77.0983 N.am      8 UNK        -0.4313 
     33 C         -73.1793   26.0968  -78.2894 C.2       8 UNK         0.5041 
     34 O         -72.5410   26.6321  -79.1963 O.2       8 UNK        -0.5577 
     35 CA        -74.6803   25.8135  -78.4857 C.3       7 UNK         0.0284 
     36 CB        -74.9055   24.3664  -78.9494 C.3       7 UNK        -0.1958 
     37 N         -75.4815   26.0801  -77.2850 N.am      7 UNK        -0.4454 
     38 C         -75.6043   27.2824  -76.7013 C.2       7 UNK         0.5089 
     39 O         -75.0651   28.3061  -77.1195 O.2       7 UNK        -0.5125 
     40 CA        -76.4196   27.3457  -75.4033 C.3       6 UNK         0.0408 
     41 CB        -77.9237   27.4064  -75.6979 C.3       6 UNK        -0.1791 
     42 N         -76.1260   26.2093  -74.5333 N.am      6 UNK        -0.4762 
     43 C         -74.9942   26.0718  -73.8285 C.2       6 UNK         0.5007 
     44 O         -74.0931   26.9135  -73.8086 O.2       6 UNK        -0.5032 
     45 CA        -74.8167   24.7438  -73.0618 C.3       5 UNK         0.0783 
     46 C46       -75.4180   24.7823  -71.6337 C.3       11 UNK        -0.0857 
     47 S47       -77.2488   24.7692  -71.5711 S.3       11 UNK        -0.2512 
     48 C48       -77.6140   26.1602  -70.4493 C.3       11 UNK         0.0225 
     49 N         -75.2910   23.5838  -73.8246 N.am      5 UNK        -0.4615 
     50 C         -74.7432   23.1596  -74.9696 C.2       4 UNK         0.5053 
     51 O         -73.7822   23.7052  -75.5076 O.2       4 UNK        -0.5105 
     52 CA        -75.3809   21.9373  -75.6479 C.3       4 UNK         0.0263 
     53 CB        -74.8027   20.6404  -75.0598 C.3       4 UNK        -0.1981 
     54 N         -76.8457   21.8849  -75.5966 N.am      4 UNK        -0.4224 
     55 C         -77.6927   22.8406  -76.0081 C.2       3 UNK         0.4895 
     56 O         -77.3297   23.9627  -76.3665 O.2       3 UNK        -0.5091 
     57 CA        -79.1900   22.4712  -76.0567 C.3       3 UNK         0.0250 
     58 CB        -79.5010   21.0232  -75.6192 C.3       3 UNK        -0.1996 
     59 N         -79.9871   23.3864  -75.2410 N.am      3 UNK        -0.4254 
     60 C         -80.5212   24.5370  -75.6680 C.2       2 UNK         0.5004 
     61 O         -80.4138   24.9625  -76.8217 O.2       2 UNK        -0.5226 
     62 CA        -81.3338   25.3364  -74.6369 C.3       2 UNK         0.0269 
     63 CB        -80.6186   25.4589  -73.2769 C.3       2 UNK        -0.1926 
     64 N         -81.6113   26.6654  -75.1779 N.am      2 UNK        -0.4687 
     65 C         -82.6593   27.4369  -74.8704 C.2       1 UNK         0.5165 
     66 O         -83.5160   27.1174  -74.0431 O.2       1 UNK        -0.5079 
     67 H67       -86.8750   30.4822  -76.3642 H         1 UNK         0.0900 
     68 H68       -86.2995   29.1953  -77.4252 H         1 UNK         0.0900 
     69 H69       -87.2271   28.7956  -75.9783 H         1 UNK         0.0900 
     70 H70       -84.1591   28.7716  -77.1677 H         1 UNK         0.2959 
     71 H71       -82.1042   28.7040  -76.4988 H         1 UNK         0.1079 
     72 H72       -82.4392   30.9186  -75.2985 H         1 UNK         0.0837 
     73 H73       -82.7181   30.0449  -73.8203 H         1 UNK         0.0837 
     74 H74       -80.4405   30.7831  -72.2964 H         1 UNK         0.0685 
     75 H75       -81.0999   29.1641  -72.3700 H         1 UNK         0.0685 
     76 H76       -79.8062   27.4923  -71.3687 H         1 UNK         0.1434 
     77 H77       -75.5532   27.7799  -71.1454 H         1 UNK         0.1329 
     78 H78       -77.8019   30.8512  -73.1168 H         1 UNK         0.1335 
     79 H79       -74.7336   29.5167  -73.3247 H         1 UNK         0.0680 
     80 H80       -75.4659   31.0659  -73.0368 H         1 UNK         0.0680 
     81 H81       -72.6606   28.8488  -70.1495 H         1 UNK         0.1032 
     82 H82       -73.4962   28.1024  -71.4788 H         1 UNK         0.1032 
     83 H83       -71.3025   30.1939  -71.8388 H         1 UNK         0.0461 
     84 H84       -69.4077   29.4314  -70.8974 H         1 UNK         0.3453 
     85 H85       -68.8645   27.7769  -71.0008 H         1 UNK         0.3453 
     86 H86       -72.7224   28.4314  -73.7745 H         1 UNK         0.2984 
     87 H87       -73.2391   30.0721  -75.8545 H         1 UNK         0.0554 
     88 H88       -71.6262   31.7266  -76.7179 H         1 UNK         0.0847 
     89 H89       -71.9018   30.4832  -77.9265 H         1 UNK         0.0847 
     90 H90       -70.4162   30.4803  -76.9767 H         1 UNK         0.0847 
     91 H91       -73.0527   27.9627  -76.4393 H         1 UNK         0.3141 
     92 H92       -70.6070   25.8352  -77.4710 H         1 UNK         0.0743 
     93 H93       -71.6107   25.4247  -74.6014 H         1 UNK         0.0784 
     94 H94       -71.0238   24.1573  -75.6792 H         1 UNK         0.0784 
     95 H95       -69.9268   25.4012  -75.1026 H         1 UNK         0.0784 
     96 H96       -73.2261   25.2450  -76.4439 H         1 UNK         0.3213 
     97 H97       -75.0412   26.4817  -79.2705 H         1 UNK         0.0855 
     98 H98       -74.5220   23.6486  -78.2253 H         1 UNK         0.0814 
     99 H99       -74.3943   24.1779  -79.8943 H         1 UNK         0.0814 
    100 H100      -75.9641   24.1563  -79.1040 H         1 UNK         0.0814 
    101 H101      -75.9956   25.2982  -76.8862 H         1 UNK         0.3105 
    102 H102      -76.1468   28.2623  -74.8777 H         1 UNK         0.0547 
    103 H103      -78.1650   28.2775  -76.3080 H         1 UNK         0.0837 
    104 H104      -78.2661   26.5242  -76.2379 H         1 UNK         0.0837 
    105 H105      -78.5008   27.4885  -74.7775 H         1 UNK         0.0837 
    106 H106      -76.7866   25.4443  -74.5386 H         1 UNK         0.3020 
    107 H107      -73.7370   24.6188  -72.9460 H         1 UNK         0.1245 
    108 H108      -75.0197   25.6304  -71.0774 H         1 UNK         0.0781 
    109 H109      -75.0758   23.9044  -71.0837 H         1 UNK         0.0781 
    110 H110      -76.8772   26.1997  -69.6457 H         1 UNK         0.0836 
    111 H111      -78.5722   25.9674  -69.9644 H         1 UNK         0.0836 
    112 H112      -76.0932   23.0970  -73.4522 H         1 UNK         0.3022 
    113 H113      -75.1052   21.9748  -76.7028 H         1 UNK         0.0747 
    114 H114      -75.1427   19.7654  -75.6142 H         1 UNK         0.0793 
    115 H115      -73.7124   20.6436  -75.1037 H         1 UNK         0.0793 
    116 H116      -75.0862   20.5081  -74.0149 H         1 UNK         0.0793 
    117 H117      -77.2458   21.0028  -75.3118 H         1 UNK         0.3047 
    118 H118      -79.4934   22.5664  -77.1016 H         1 UNK         0.0822 
    119 H119      -78.9780   20.2959  -76.2421 H         1 UNK         0.0807 
    120 H120      -80.5653   20.8086  -75.7203 H         1 UNK         0.0807 
    121 H121      -79.2294   20.8376  -74.5790 H         1 UNK         0.0807 
    122 H122      -80.1053   23.1325  -74.2710 H         1 UNK         0.2946 
    123 H123      -82.2793   24.8070  -74.4974 H         1 UNK         0.1144 
    124 H124      -81.1937   26.0757  -72.5872 H         1 UNK         0.0793 
    125 H125      -79.6287   25.9024  -73.3839 H         1 UNK         0.0793 
    126 H126      -80.4925   24.4888  -72.7959 H         1 UNK         0.0793 
    127 H127      -80.9792   26.9485  -75.9159 H         1 UNK         0.2896 
@<TRIPOS>BOND
     1    1    2 1    
     2    1   67 1    
     3    1   68 1    
     4    1   69 1    
     5    2    3 2    
     6    2    4 am   BACKBONE|DICT|INTERRES
     7    4    5 1    
     8    4   70 1    
     9    5    6 1    
    10    5   65 1    
    11    5   71 1    
    12    6    7 1    
    13    6   72 1    
    14    6   73 1    
    15    7    8 1    
    16    8    9 1    
    17    8   74 1    
    18    8   75 1    
    19    9   10 ar   
    20    9   14 ar   
    21   10   11 ar   
    22   10   76 1    
    23   11   12 ar   
    24   11   48 1    
    25   12   13 ar   
    26   12   77 1    
    27   13   14 ar   
    28   13   15 1    
    29   14   78 1    
    30   15   16 1    
    31   15   79 1    
    32   15   80 1    
    33   16   17 1    
    34   17   18 1    
    35   17   81 1    
    36   17   82 1    
    37   18   19 1    
    38   18   22 1    
    39   18   83 1    
    40   19   20 am   BACKBONE|DICT|INTERRES
    41   19   21 2    
    42   20   84 1    
    43   20   85 1    
    44   22   23 am   BACKBONE|DICT|INTERRES
    45   22   86 1    
    46   23   24 2    
    47   23   25 1    
    48   25   26 1    
    49   25   27 1    
    50   25   87 1    
    51   26   88 1    
    52   26   89 1    
    53   26   90 1    
    54   27   28 am   BACKBONE|DICT|INTERRES
    55   27   91 1    
    56   28   29 2    
    57   28   30 1    
    58   30   31 1    
    59   30   32 1    
    60   30   92 1    
    61   31   93 1    
    62   31   94 1    
    63   31   95 1    
    64   32   33 am   BACKBONE|DICT|INTERRES
    65   32   96 1    
    66   33   34 2    
    67   33   35 1    
    68   35   36 1    
    69   35   37 1    
    70   35   97 1    
    71   36   98 1    
    72   36   99 1    
    73   36  100 1    
    74   37   38 am   BACKBONE|DICT|INTERRES
    75   37  101 1    
    76   38   39 2    
    77   38   40 1    
    78   40   41 1    
    79   40   42 1    
    80   40  102 1    
    81   41  103 1    
    82   41  104 1    
    83   41  105 1    
    84   42   43 am   BACKBONE|DICT|INTERRES
    85   42  106 1    
    86   43   44 2    
    87   43   45 1    
    88   45   46 1    
    89   45   49 1    
    90   45  107 1    
    91   46   47 1    
    92   46  108 1    
    93   46  109 1    
    94   47   48 1    
    95   48  110 1    
    96   48  111 1    
    97   49   50 am   BACKBONE|DICT|INTERRES
    98   49  112 1    
    99   50   51 2    
   100   50   52 1    
   101   52   53 1    
   102   52   54 1    
   103   52  113 1    
   104   53  114 1    
   105   53  115 1    
   106   53  116 1    
   107   54   55 am   BACKBONE|DICT|INTERRES
   108   54  117 1    
   109   55   56 2    
   110   55   57 1    
   111   57   58 1    
   112   57   59 1    
   113   57  118 1    
   114   58  119 1    
   115   58  120 1    
   116   58  121 1    
   117   59   60 am   BACKBONE|DICT|INTERRES
   118   59  122 1    
   119   60   61 2    
   120   60   62 1    
   121   62   63 1    
   122   62   64 1    
   123   62  123 1    
   124   63  124 1    
   125   63  125 1    
   126   63  126 1    
   127   64   65 am   BACKBONE|DICT|INTERRES
   128   64  127 1    
   129   65   66 2    
@<TRIPOS>SUBSTRUCTURE
     1 UNK         1 GROUP             0       ****    0 ROOT    
