@<TRIPOS>MOLECULE
3R135
127   129    1
SMALL
USER_CHARGES


@<TRIPOS>ATOM
      1 CA        -84.1381   30.8943  -72.9107 C.3       0 UNK        -0.1998 
      2 C         -82.9992   29.9285  -73.2026 C.2       0 UNK         0.4909 
      3 O         -83.0151   28.8025  -72.7045 O.2       0 UNK        -0.5240 
      4 N         -82.0172   30.3673  -74.0026 N.am      1 UNK        -0.4739 
      5 CA        -80.8346   29.6117  -74.4386 C.3       1 UNK         0.0864 
      6 C6        -79.8522   29.2727  -73.2826 C.3       11 UNK        -0.0881 
      7 S7        -79.1474   30.7789  -72.5336 S.3       11 UNK        -0.2682 
      8 C8        -78.6482   30.1670  -70.8948 C.3       11 UNK         0.0289 
      9 C9        -77.5333   29.1364  -70.9939 C.ar      11 UNK        -0.0687 
     10 C10       -77.8363   27.7734  -70.9793 C.ar      11 UNK        -0.0823 
     11 C11       -76.8213   26.8205  -71.0817 C.ar      11 UNK        -0.0830 
     12 C12       -75.4917   27.2414  -71.1782 C.ar      11 UNK        -0.1021 
     13 C13       -75.1653   28.6026  -71.1856 C.ar      11 UNK        -0.0753 
     14 C14       -76.2005   29.5454  -71.0980 C.ar      11 UNK        -0.0933 
     15 C15       -73.6871   28.9863  -71.3030 C.3       11 UNK         0.0166 
     16 S16       -73.3052   30.7718  -71.2024 S.3       11 UNK        -0.2615 
     17 C17       -72.3067   31.0298  -72.7122 C.3       11 UNK        -0.0865 
     18 CA        -73.1776   31.4037  -73.9418 C.3       10 UNK         0.0862 
     19 C         -72.3163   31.8994  -75.1406 C.2       10 UNK         0.5551 
     20 N         -72.5007   31.3993  -76.3578 N.am      10 UNK        -0.7319 
     21 O         -71.4736   32.7770  -74.9684 O.2       10 UNK        -0.5018 
     22 N         -74.0760   30.2995  -74.3022 N.am      10 UNK        -0.4509 
     23 C         -75.3744   30.4178  -74.6034 C.2       10 UNK         0.4899 
     24 O         -75.9868   31.4862  -74.5721 O.2       10 UNK        -0.4839 
     25 CA        -76.1110   29.1222  -75.0139 C.3       9 UNK         0.0222 
     26 CB        -77.3109   29.3953  -75.9455 C.3       9 UNK        -0.1966 
     27 N         -75.2340   28.0970  -75.5986 N.am      9 UNK        -0.4218 
     28 C         -74.4570   28.2311  -76.6844 C.2       9 UNK         0.5020 
     29 O         -74.3838   29.2649  -77.3525 O.2       9 UNK        -0.5274 
     30 CA        -73.5847   27.0170  -77.0527 C.3       8 UNK         0.0270 
     31 CB        -72.4974   27.3641  -78.0920 C.3       8 UNK        -0.1976 
     32 N         -72.9734   26.3421  -75.8992 N.am      8 UNK        -0.4313 
     33 C         -72.1842   26.8789  -74.9527 C.2       8 UNK         0.5041 
     34 O         -72.0118   28.0916  -74.8223 O.2       8 UNK        -0.5577 
     35 CA        -71.4679   25.9124  -73.9822 C.3       7 UNK         0.0284 
     36 CB        -71.4914   26.4141  -72.5285 C.3       7 UNK        -0.1958 
     37 N         -72.0078   24.5517  -74.0164 N.am      7 UNK        -0.4454 
     38 C         -71.6421   23.5860  -74.8695 C.2       7 UNK         0.5089 
     39 O         -70.7349   23.7021  -75.6928 O.2       7 UNK        -0.5125 
     40 CA        -72.4665   22.2854  -74.8231 C.3       6 UNK         0.0408 
     41 CB        -71.7596   21.2333  -73.9541 C.3       6 UNK        -0.1791 
     42 N         -73.8428   22.4725  -74.3401 N.am      6 UNK        -0.4762 
     43 C         -74.7781   23.2107  -74.9574 C.2       6 UNK         0.5007 
     44 O         -74.5706   23.8436  -75.9946 O.2       6 UNK        -0.5032 
     45 CA        -76.1573   23.3052  -74.2774 C.3       5 UNK         0.0783 
     46 C46       -76.3945   24.7347  -73.7320 C.3       11 UNK        -0.0857 
     47 S47       -77.8773   24.8172  -72.6742 S.3       11 UNK        -0.2512 
     48 C48       -77.1731   25.3397  -71.0780 C.3       11 UNK         0.0225 
     49 N         -77.2119   22.8962  -75.2079 N.am      5 UNK        -0.4615 
     50 C         -77.3830   21.6472  -75.6642 C.2       4 UNK         0.5053 
     51 O         -76.6917   20.6942  -75.3024 O.2       4 UNK        -0.5105 
     52 CA        -78.5227   21.3927  -76.6695 C.3       4 UNK         0.0263 
     53 CB        -79.6766   20.6377  -75.9883 C.3       4 UNK        -0.1981 
     54 N         -79.0561   22.6095  -77.2838 N.am      4 UNK        -0.4224 
     55 C         -78.4344   23.3509  -78.2120 C.2       3 UNK         0.4895 
     56 O         -77.3440   23.0592  -78.7029 O.2       3 UNK        -0.5091 
     57 CA        -79.1499   24.6365  -78.6724 C.3       3 UNK         0.0250 
     58 CB        -79.7810   24.4334  -80.0598 C.3       3 UNK        -0.1996 
     59 N         -80.1830   25.1008  -77.7375 N.am      3 UNK        -0.4254 
     60 C         -79.9285   25.6271  -76.5323 C.2       2 UNK         0.5004 
     61 O         -78.7920   25.7932  -76.0853 O.2       2 UNK        -0.5226 
     62 CA        -81.1449   25.9531  -75.6564 C.3       2 UNK         0.0269 
     63 CB        -81.4195   24.7995  -74.6774 C.3       2 UNK        -0.1926 
     64 N         -80.8983   27.1764  -74.8950 N.am      2 UNK        -0.4687 
     65 C         -81.2481   28.4021  -75.3067 C.2       1 UNK         0.5165 
     66 O         -81.8757   28.6111  -76.3477 O.2       1 UNK        -0.5079 
     67 H67       -85.0837   30.4729  -73.2508 H         1 UNK         0.0900 
     68 H68       -84.2109   31.0743  -71.8385 H         1 UNK         0.0900 
     69 H69       -83.9969   31.8546  -73.4063 H         1 UNK         0.0900 
     70 H70       -82.0866   31.2988  -74.3881 H         1 UNK         0.2959 
     71 H71       -80.3072   30.2733  -75.1270 H         1 UNK         0.1079 
     72 H72       -80.3503   28.6839  -72.5110 H         1 UNK         0.0837 
     73 H73       -79.0149   28.6716  -73.6415 H         1 UNK         0.0837 
     74 H74       -78.3142   31.0116  -70.2904 H         1 UNK         0.0685 
     75 H75       -79.5161   29.7500  -70.3815 H         1 UNK         0.0685 
     76 H76       -78.8652   27.4503  -70.9001 H         1 UNK         0.1434 
     77 H77       -74.7051   26.5034  -71.2454 H         1 UNK         0.1329 
     78 H78       -75.9871   30.6042  -71.1169 H         1 UNK         0.1335 
     79 H79       -73.3230   28.5973  -72.2525 H         1 UNK         0.0680 
     80 H80       -73.1220   28.4756  -70.5221 H         1 UNK         0.0680 
     81 H81       -71.6008   31.8320  -72.4891 H         1 UNK         0.1032 
     82 H82       -71.6966   30.1484  -72.9189 H         1 UNK         0.1032 
     83 H83       -73.7774   32.2687  -73.6536 H         1 UNK         0.0461 
     84 H84       -71.9366   31.7406  -77.1191 H         1 UNK         0.3453 
     85 H85       -73.1979   30.6830  -76.5304 H         1 UNK         0.3453 
     86 H86       -73.6185   29.4034  -74.4288 H         1 UNK         0.2984 
     87 H87       -76.5015   28.6972  -74.0879 H         1 UNK         0.0554 
     88 H88       -77.9951   30.1161  -75.5001 H         1 UNK         0.0847 
     89 H89       -77.8770   28.4841  -76.1399 H         1 UNK         0.0847 
     90 H90       -76.9950   29.8069  -76.9042 H         1 UNK         0.0847 
     91 H91       -75.1977   27.2163  -75.1072 H         1 UNK         0.3141 
     92 H92       -74.2585   26.2905  -77.5099 H         1 UNK         0.0743 
     93 H93       -71.8052   28.1168  -77.7123 H         1 UNK         0.0784 
     94 H94       -71.9171   26.4836  -78.3681 H         1 UNK         0.0784 
     95 H95       -72.9394   27.7590  -79.0077 H         1 UNK         0.0784 
     96 H96       -73.1255   25.3393  -75.8770 H         1 UNK         0.3213 
     97 H97       -70.4238   25.8860  -74.3015 H         1 UNK         0.0855 
     98 H98       -72.4991   26.4039  -72.1171 H         1 UNK         0.0814 
     99 H99       -71.1064   27.4318  -72.4499 H         1 UNK         0.0814 
    100 H100      -70.8674   25.7896  -71.8889 H         1 UNK         0.0814 
    101 H101      -72.7589   24.3459  -73.3745 H         1 UNK         0.3105 
    102 H102      -72.5244   21.9006  -75.8436 H         1 UNK         0.0547 
    103 H103      -70.7429   21.0548  -74.3077 H         1 UNK         0.0837 
    104 H104      -71.6904   21.5479  -72.9121 H         1 UNK         0.0837 
    105 H105      -72.2816   20.2768  -73.9838 H         1 UNK         0.0837 
    106 H106      -74.0914   21.9723  -73.4976 H         1 UNK         0.3020 
    107 H107      -76.1740   22.6103  -73.4346 H         1 UNK         0.1245 
    108 H108      -76.5200   25.4450  -74.5513 H         1 UNK         0.0781 
    109 H109      -75.5300   25.0788  -73.1625 H         1 UNK         0.0781 
    110 H110      -76.3028   24.7272  -70.8372 H         1 UNK         0.0836 
    111 H111      -77.9048   25.1463  -70.2922 H         1 UNK         0.0836 
    112 H112      -77.8025   23.6375  -75.5600 H         1 UNK         0.3022 
    113 H113      -78.1192   20.7594  -77.4624 H         1 UNK         0.0747 
    114 H114      -80.4619   20.3844  -76.7008 H         1 UNK         0.0793 
    115 H115      -79.3268   19.7017  -75.5502 H         1 UNK         0.0793 
    116 H116      -80.1253   21.2247  -75.1856 H         1 UNK         0.0793 
    117 H117      -79.9569   22.9230  -76.9554 H         1 UNK         0.3047 
    118 H118      -78.3897   25.4170  -78.7528 H         1 UNK         0.0822 
    119 H119      -80.2239   25.3567  -80.4340 H         1 UNK         0.0807 
    120 H120      -80.5587   23.6688  -80.0430 H         1 UNK         0.0807 
    121 H121      -79.0313   24.1191  -80.7876 H         1 UNK         0.0807 
    122 H122      -81.1426   24.9913  -78.0350 H         1 UNK         0.2946 
    123 H123      -82.0243   26.0821  -76.2921 H         1 UNK         0.1144 
    124 H124      -82.2716   25.0216  -74.0346 H         1 UNK         0.0793 
    125 H125      -80.5613   24.5984  -74.0354 H         1 UNK         0.0793 
    126 H126      -81.6505   23.8769  -75.2113 H         1 UNK         0.0793 
    127 H127      -80.3472   27.0741  -74.0556 H         1 UNK         0.2896 
@<TRIPOS>BOND
     1    1    2 1    
     2    1   67 1    
     3    1   68 1    
     4    1   69 1    
     5    2    3 2    
     6    2    4 am   BACKBONE|DICT|INTERRES
     7    4    5 1    
     8    4   70 1    
     9    5    6 1    
    10    5   65 1    
    11    5   71 1    
    12    6    7 1    
    13    6   72 1    
    14    6   73 1    
    15    7    8 1    
    16    8    9 1    
    17    8   74 1    
    18    8   75 1    
    19    9   10 ar   
    20    9   14 ar   
    21   10   11 ar   
    22   10   76 1    
    23   11   12 ar   
    24   11   48 1    
    25   12   13 ar   
    26   12   77 1    
    27   13   14 ar   
    28   13   15 1    
    29   14   78 1    
    30   15   16 1    
    31   15   79 1    
    32   15   80 1    
    33   16   17 1    
    34   17   18 1    
    35   17   81 1    
    36   17   82 1    
    37   18   19 1    
    38   18   22 1    
    39   18   83 1    
    40   19   20 am   BACKBONE|DICT|INTERRES
    41   19   21 2    
    42   20   84 1    
    43   20   85 1    
    44   22   23 am   BACKBONE|DICT|INTERRES
    45   22   86 1    
    46   23   24 2    
    47   23   25 1    
    48   25   26 1    
    49   25   27 1    
    50   25   87 1    
    51   26   88 1    
    52   26   89 1    
    53   26   90 1    
    54   27   28 am   BACKBONE|DICT|INTERRES
    55   27   91 1    
    56   28   29 2    
    57   28   30 1    
    58   30   31 1    
    59   30   32 1    
    60   30   92 1    
    61   31   93 1    
    62   31   94 1    
    63   31   95 1    
    64   32   33 am   BACKBONE|DICT|INTERRES
    65   32   96 1    
    66   33   34 2    
    67   33   35 1    
    68   35   36 1    
    69   35   37 1    
    70   35   97 1    
    71   36   98 1    
    72   36   99 1    
    73   36  100 1    
    74   37   38 am   BACKBONE|DICT|INTERRES
    75   37  101 1    
    76   38   39 2    
    77   38   40 1    
    78   40   41 1    
    79   40   42 1    
    80   40  102 1    
    81   41  103 1    
    82   41  104 1    
    83   41  105 1    
    84   42   43 am   BACKBONE|DICT|INTERRES
    85   42  106 1    
    86   43   44 2    
    87   43   45 1    
    88   45   46 1    
    89   45   49 1    
    90   45  107 1    
    91   46   47 1    
    92   46  108 1    
    93   46  109 1    
    94   47   48 1    
    95   48  110 1    
    96   48  111 1    
    97   49   50 am   BACKBONE|DICT|INTERRES
    98   49  112 1    
    99   50   51 2    
   100   50   52 1    
   101   52   53 1    
   102   52   54 1    
   103   52  113 1    
   104   53  114 1    
   105   53  115 1    
   106   53  116 1    
   107   54   55 am   BACKBONE|DICT|INTERRES
   108   54  117 1    
   109   55   56 2    
   110   55   57 1    
   111   57   58 1    
   112   57   59 1    
   113   57  118 1    
   114   58  119 1    
   115   58  120 1    
   116   58  121 1    
   117   59   60 am   BACKBONE|DICT|INTERRES
   118   59  122 1    
   119   60   61 2    
   120   60   62 1    
   121   62   63 1    
   122   62   64 1    
   123   62  123 1    
   124   63  124 1    
   125   63  125 1    
   126   63  126 1    
   127   64   65 am   BACKBONE|DICT|INTERRES
   128   64  127 1    
   129   65   66 2    
@<TRIPOS>SUBSTRUCTURE
     1 UNK         1 GROUP             0       ****    0 ROOT    
