@<TRIPOS>MOLECULE
3R135
127   129    1
SMALL
USER_CHARGES


@<TRIPOS>ATOM
      1 CA        -78.6449   30.6977  -75.7630 C.3       0 UNK        -0.1998 
      2 C         -78.9429   29.6060  -74.7478 C.2       0 UNK         0.4909 
      3 O         -78.0603   28.8119  -74.4319 O.2       0 UNK        -0.5240 
      4 N         -80.1781   29.5687  -74.2330 N.am      1 UNK        -0.4739 
      5 CA        -80.6640   28.5276  -73.3247 C.3       1 UNK         0.0864 
      6 C6        -81.8015   29.0702  -72.4214 C.3       11 UNK        -0.0881 
      7 S7        -82.0846   28.0468  -70.9359 S.3       11 UNK        -0.2682 
      8 C8        -81.0836   28.9147  -69.6830 C.3       11 UNK         0.0289 
      9 C9        -79.5991   28.8321  -70.0042 C.ar      11 UNK        -0.0687 
     10 C10       -78.9173   27.6236  -69.8415 C.ar      11 UNK        -0.0823 
     11 C11       -77.5726   27.5188  -70.2017 C.ar      11 UNK        -0.0830 
     12 C12       -76.9007   28.6428  -70.6904 C.ar      11 UNK        -0.1021 
     13 C13       -77.5693   29.8609  -70.8680 C.ar      11 UNK        -0.0753 
     14 C14       -78.9193   29.9450  -70.5106 C.ar      11 UNK        -0.0933 
     15 C15       -76.9037   31.0942  -71.4853 C.3       11 UNK         0.0166 
     16 S16       -75.1019   30.9612  -71.7899 S.3       11 UNK        -0.2615 
     17 C17       -74.9487   31.3809  -73.5640 C.3       11 UNK        -0.0865 
     18 CA        -74.5941   30.1660  -74.4776 C.3       10 UNK         0.0862 
     19 C         -74.5650   30.5545  -75.9879 C.2       10 UNK         0.5551 
     20 N         -73.6642   30.0154  -76.8011 N.am      10 UNK        -0.7319 
     21 O         -75.3891   31.3443  -76.4412 O.2       10 UNK        -0.5018 
     22 N         -73.4116   29.4016  -74.0394 N.am      10 UNK        -0.4509 
     23 C         -72.1743   29.8876  -73.8707 C.2       10 UNK         0.4899 
     24 O         -71.8724   31.0751  -73.9923 O.2       10 UNK        -0.4839 
     25 CA        -71.0660   28.8803  -73.5153 C.3       9 UNK         0.0222 
     26 CB        -70.9266   28.7661  -71.9882 C.3       9 UNK        -0.1966 
     27 N         -71.2289   27.5381  -74.0864 N.am      9 UNK        -0.4218 
     28 C         -71.3215   27.2377  -75.3904 C.2       9 UNK         0.5020 
     29 O         -71.3719   28.0856  -76.2840 O.2       9 UNK        -0.5274 
     30 CA        -71.3419   25.7459  -75.7685 C.3       8 UNK         0.0270 
     31 CB        -71.4837   24.7855  -74.5680 C.3       8 UNK        -0.1976 
     32 N         -72.4442   25.5045  -76.6937 N.am      8 UNK        -0.4313 
     33 C         -72.3478   24.9455  -77.9064 C.2       8 UNK         0.5041 
     34 O         -71.2817   24.5741  -78.4012 O.2       8 UNK        -0.5577 
     35 CA        -73.6487   24.7296  -78.7089 C.3       7 UNK         0.0284 
     36 CB        -73.9354   23.2270  -78.8708 C.3       7 UNK        -0.1958 
     37 N         -74.8224   25.3665  -78.1085 N.am      7 UNK        -0.4454 
     38 C         -75.0944   26.6772  -78.1506 C.2       7 UNK         0.5089 
     39 O         -74.4458   27.4888  -78.8097 O.2       7 UNK        -0.5125 
     40 CA        -76.2659   27.1662  -77.2803 C.3       6 UNK         0.0408 
     41 CB        -77.5717   27.1916  -78.0882 C.3       6 UNK        -0.1791 
     42 N         -76.4641   26.3623  -76.0714 N.am      6 UNK        -0.4762 
     43 C         -75.5889   26.2387  -75.0631 C.2       6 UNK         0.5007 
     44 O         -74.4913   26.7938  -75.0341 O.2       6 UNK        -0.5032 
     45 CA        -75.9882   25.3022  -73.9110 C.3       5 UNK         0.0783 
     46 C46       -76.9579   26.0262  -72.9541 C.3       11 UNK        -0.0857 
     47 S47       -77.3714   25.0564  -71.4642 S.3       11 UNK        -0.2512 
     48 C48       -76.8563   26.1777  -70.1194 C.3       11 UNK         0.0225 
     49 N         -76.5401   24.0534  -74.4379 N.am      5 UNK        -0.4615 
     50 C         -75.8075   23.0630  -74.9626 C.2       4 UNK         0.5053 
     51 O         -74.5780   23.0706  -75.0020 O.2       4 UNK        -0.5105 
     52 CA        -76.5704   21.8641  -75.5544 C.3       4 UNK         0.0263 
     53 CB        -76.7560   20.7706  -74.4905 C.3       4 UNK        -0.1981 
     54 N         -77.8774   22.2267  -76.1093 N.am      4 UNK        -0.4224 
     55 C         -78.0546   22.9792  -77.2048 C.2       3 UNK         0.4895 
     56 O         -77.1326   23.4131  -77.8949 O.2       3 UNK        -0.5091 
     57 CA        -79.5064   23.3585  -77.5540 C.3       3 UNK         0.0250 
     58 CB        -80.1749   22.2433  -78.3735 C.3       3 UNK        -0.1996 
     59 N         -80.3363   23.6789  -76.3829 N.am      3 UNK        -0.4254 
     60 C         -80.0476   24.6402  -75.4943 C.2       2 UNK         0.5004 
     61 O         -79.0292   25.3293  -75.5579 O.2       2 UNK        -0.5226 
     62 CA        -81.0152   24.8173  -74.3105 C.3       2 UNK         0.0269 
     63 CB        -80.8245   23.6819  -73.2905 C.3       2 UNK        -0.1926 
     64 N         -80.8033   26.0958  -73.6250 N.am      2 UNK        -0.4687 
     65 C         -81.1038   27.2952  -74.1400 C.2       1 UNK         0.5165 
     66 O         -81.7203   27.4506  -75.1985 O.2       1 UNK        -0.5079 
     67 H67       -79.5514   31.1984  -76.1023 H         1 UNK         0.0900 
     68 H68       -78.1461   30.2730  -76.6340 H         1 UNK         0.0900 
     69 H69       -77.9842   31.4451  -75.3253 H         1 UNK         0.0900 
     70 H70       -80.8746   30.2210  -74.5633 H         1 UNK         0.2959 
     71 H71       -79.8274   28.2287  -72.6895 H         1 UNK         0.1079 
     72 H72       -82.7379   29.1527  -72.9769 H         1 UNK         0.0837 
     73 H73       -81.5677   30.0842  -72.0931 H         1 UNK         0.0837 
     74 H74       -81.4118   29.9525  -69.6063 H         1 UNK         0.0685 
     75 H75       -81.2677   28.4625  -68.7074 H         1 UNK         0.0685 
     76 H76       -79.4454   26.7531  -69.4763 H         1 UNK         0.1434 
     77 H77       -75.8637   28.5407  -70.9740 H         1 UNK         0.1329 
     78 H78       -79.4517   30.8751  -70.6564 H         1 UNK         0.1335 
     79 H79       -77.0689   31.9501  -70.8294 H         1 UNK         0.0680 
     80 H80       -77.4255   31.3176  -72.4159 H         1 UNK         0.0680 
     81 H81       -74.1905   32.1591  -73.6585 H         1 UNK         0.1032 
     82 H82       -75.8726   31.8493  -73.9043 H         1 UNK         0.1032 
     83 H83       -75.4215   29.4609  -74.3955 H         1 UNK         0.0461 
     84 H84       -72.9770   29.3536  -76.4583 H         1 UNK         0.3453 
     85 H85       -73.6776   30.2556  -77.7788 H         1 UNK         0.3453 
     86 H86       -73.5472   28.3983  -74.0055 H         1 UNK         0.2984 
     87 H87       -70.1303   29.2808  -73.9105 H         1 UNK         0.0554 
     88 H88       -70.0723   28.1491  -71.7093 H         1 UNK         0.0847 
     89 H89       -71.8191   28.3348  -71.5328 H         1 UNK         0.0847 
     90 H90       -70.7747   29.7474  -71.5360 H         1 UNK         0.0847 
     91 H91       -71.2129   26.7696  -73.4320 H         1 UNK         0.3141 
     92 H92       -70.3862   25.5423  -76.2553 H         1 UNK         0.0743 
     93 H93       -71.5108   23.7484  -74.9037 H         1 UNK         0.0784 
     94 H94       -70.6409   24.8711  -73.8811 H         1 UNK         0.0784 
     95 H95       -72.4026   24.9658  -74.0078 H         1 UNK         0.0784 
     96 H96       -73.3451   25.8516  -76.3808 H         1 UNK         0.3213 
     97 H97       -73.4920   25.1575  -79.7013 H         1 UNK         0.0855 
     98 H98       -74.1043   22.7448  -77.9069 H         1 UNK         0.0814 
     99 H99       -73.0994   22.7160  -79.3502 H         1 UNK         0.0814 
    100 H100      -74.8162   23.0553  -79.4898 H         1 UNK         0.0814 
    101 H101      -75.4679   24.7609  -77.6136 H         1 UNK         0.3105 
    102 H102      -76.0435   28.1855  -76.9620 H         1 UNK         0.0547 
    103 H103      -77.8498   26.1950  -78.4324 H         1 UNK         0.0837 
    104 H104      -78.3972   27.5820  -77.4922 H         1 UNK         0.0837 
    105 H105      -77.4741   27.8284  -78.9683 H         1 UNK         0.0837 
    106 H106      -77.3750   25.9154  -75.9676 H         1 UNK         0.3020 
    107 H107      -75.0777   25.0676  -73.3546 H         1 UNK         0.1245 
    108 H108      -76.5160   26.9776  -72.6641 H         1 UNK         0.0781 
    109 H109      -77.8902   26.2823  -73.4570 H         1 UNK         0.0781 
    110 H110      -77.0721   25.7063  -69.1596 H         1 UNK         0.0836 
    111 H111      -75.7740   26.3114  -70.1580 H         1 UNK         0.0836 
    112 H112      -77.5472   24.0086  -74.4994 H         1 UNK         0.3022 
    113 H113      -75.9620   21.4550  -76.3641 H         1 UNK         0.0747 
    114 H114      -77.2259   19.8817  -74.9118 H         1 UNK         0.0793 
    115 H115      -75.7942   20.4618  -74.0780 H         1 UNK         0.0793 
    116 H116      -77.3713   21.1156  -73.6583 H         1 UNK         0.0793 
    117 H117      -78.6936   21.9126  -75.6052 H         1 UNK         0.3047 
    118 H118      -79.4638   24.2557  -78.1750 H         1 UNK         0.0822 
    119 H119      -81.1632   22.5442  -78.7217 H         1 UNK         0.0807 
    120 H120      -80.2869   21.3254  -77.7951 H         1 UNK         0.0807 
    121 H121      -79.5830   22.0013  -79.2576 H         1 UNK         0.0807 
    122 H122      -81.1828   23.1402  -76.2658 H         1 UNK         0.2946 
    123 H123      -82.0381   24.7932  -74.6931 H         1 UNK         0.1144 
    124 H124      -81.5045   23.7911  -72.4453 H         1 UNK         0.0793 
    125 H125      -79.8068   23.6572  -72.8984 H         1 UNK         0.0793 
    126 H126      -81.0255   22.7078  -73.7380 H         1 UNK         0.0793 
    127 H127      -80.2950   26.0574  -72.7535 H         1 UNK         0.2896 
@<TRIPOS>BOND
     1    1    2 1    
     2    1   67 1    
     3    1   68 1    
     4    1   69 1    
     5    2    3 2    
     6    2    4 am   BACKBONE|DICT|INTERRES
     7    4    5 1    
     8    4   70 1    
     9    5    6 1    
    10    5   65 1    
    11    5   71 1    
    12    6    7 1    
    13    6   72 1    
    14    6   73 1    
    15    7    8 1    
    16    8    9 1    
    17    8   74 1    
    18    8   75 1    
    19    9   10 ar   
    20    9   14 ar   
    21   10   11 ar   
    22   10   76 1    
    23   11   12 ar   
    24   11   48 1    
    25   12   13 ar   
    26   12   77 1    
    27   13   14 ar   
    28   13   15 1    
    29   14   78 1    
    30   15   16 1    
    31   15   79 1    
    32   15   80 1    
    33   16   17 1    
    34   17   18 1    
    35   17   81 1    
    36   17   82 1    
    37   18   19 1    
    38   18   22 1    
    39   18   83 1    
    40   19   20 am   BACKBONE|DICT|INTERRES
    41   19   21 2    
    42   20   84 1    
    43   20   85 1    
    44   22   23 am   BACKBONE|DICT|INTERRES
    45   22   86 1    
    46   23   24 2    
    47   23   25 1    
    48   25   26 1    
    49   25   27 1    
    50   25   87 1    
    51   26   88 1    
    52   26   89 1    
    53   26   90 1    
    54   27   28 am   BACKBONE|DICT|INTERRES
    55   27   91 1    
    56   28   29 2    
    57   28   30 1    
    58   30   31 1    
    59   30   32 1    
    60   30   92 1    
    61   31   93 1    
    62   31   94 1    
    63   31   95 1    
    64   32   33 am   BACKBONE|DICT|INTERRES
    65   32   96 1    
    66   33   34 2    
    67   33   35 1    
    68   35   36 1    
    69   35   37 1    
    70   35   97 1    
    71   36   98 1    
    72   36   99 1    
    73   36  100 1    
    74   37   38 am   BACKBONE|DICT|INTERRES
    75   37  101 1    
    76   38   39 2    
    77   38   40 1    
    78   40   41 1    
    79   40   42 1    
    80   40  102 1    
    81   41  103 1    
    82   41  104 1    
    83   41  105 1    
    84   42   43 am   BACKBONE|DICT|INTERRES
    85   42  106 1    
    86   43   44 2    
    87   43   45 1    
    88   45   46 1    
    89   45   49 1    
    90   45  107 1    
    91   46   47 1    
    92   46  108 1    
    93   46  109 1    
    94   47   48 1    
    95   48  110 1    
    96   48  111 1    
    97   49   50 am   BACKBONE|DICT|INTERRES
    98   49  112 1    
    99   50   51 2    
   100   50   52 1    
   101   52   53 1    
   102   52   54 1    
   103   52  113 1    
   104   53  114 1    
   105   53  115 1    
   106   53  116 1    
   107   54   55 am   BACKBONE|DICT|INTERRES
   108   54  117 1    
   109   55   56 2    
   110   55   57 1    
   111   57   58 1    
   112   57   59 1    
   113   57  118 1    
   114   58  119 1    
   115   58  120 1    
   116   58  121 1    
   117   59   60 am   BACKBONE|DICT|INTERRES
   118   59  122 1    
   119   60   61 2    
   120   60   62 1    
   121   62   63 1    
   122   62   64 1    
   123   62  123 1    
   124   63  124 1    
   125   63  125 1    
   126   63  126 1    
   127   64   65 am   BACKBONE|DICT|INTERRES
   128   64  127 1    
   129   65   66 2    
@<TRIPOS>SUBSTRUCTURE
     1 UNK         1 GROUP             0       ****    0 ROOT    
