@<TRIPOS>MOLECULE
3R135
127   129    1
SMALL
USER_CHARGES


@<TRIPOS>ATOM
      1 CA        -82.9175   30.7282  -75.7509 C.3       0 UNK        -0.1998 
      2 C         -82.7623   29.3293  -75.1727 C.2       0 UNK         0.4909 
      3 O         -83.7627   28.6953  -74.8353 O.2       0 UNK        -0.5240 
      4 N         -81.5155   28.8521  -75.0530 N.am      1 UNK        -0.4739 
      5 CA        -81.1438   27.5138  -74.5773 C.3       1 UNK         0.0864 
      6 C6        -81.5477   27.2642  -73.0953 C.3       11 UNK        -0.0881 
      7 S7        -80.4530   26.0630  -72.2575 S.3       11 UNK        -0.2682 
      8 C8        -80.0942   26.9059  -70.6805 C.3       11 UNK         0.0289 
      9 C9        -78.7739   27.6700  -70.6945 C.ar      11 UNK        -0.0687 
     10 C10       -78.5987   28.7884  -71.5173 C.ar      11 UNK        -0.0823 
     11 C11       -77.4063   29.5184  -71.4781 C.ar      11 UNK        -0.0830 
     12 C12       -76.3885   29.1275  -70.6026 C.ar      11 UNK        -0.1021 
     13 C13       -76.5353   27.9968  -69.7961 C.ar      11 UNK        -0.0753 
     14 C14       -77.7339   27.2767  -69.8439 C.ar      11 UNK        -0.0933 
     15 C15       -75.4148   27.5625  -68.8577 C.3       11 UNK         0.0166 
     16 S16       -73.9454   26.9437  -69.7509 S.3       11 UNK        -0.2615 
     17 C17       -72.9068   28.4409  -69.8917 C.3       11 UNK        -0.0865 
     18 CA        -72.6652   28.9031  -71.3539 C.3       10 UNK         0.0862 
     19 C         -71.9725   30.2994  -71.3653 C.2       10 UNK         0.5551 
     20 N         -70.7331   30.4264  -71.8237 N.am      10 UNK        -0.7319 
     21 O         -72.5727   31.2836  -70.9411 O.2       10 UNK        -0.5018 
     22 N         -71.9987   27.8617  -72.1598 N.am      10 UNK        -0.4509 
     23 C         -71.9143   27.8789  -73.4968 C.2       10 UNK         0.4899 
     24 O         -72.3637   28.7951  -74.1879 O.2       10 UNK        -0.4839 
     25 CA        -71.2050   26.6897  -74.1760 C.3       9 UNK         0.0222 
     26 CB        -71.4993   25.3425  -73.4875 C.3       9 UNK        -0.1966 
     27 N         -71.6355   26.6131  -75.5732 N.am      9 UNK        -0.4218 
     28 C         -70.9368   27.0497  -76.6287 C.2       9 UNK         0.5020 
     29 O         -69.7593   27.4100  -76.5623 O.2       9 UNK        -0.5274 
     30 CA        -71.6825   27.1495  -77.9777 C.3       8 UNK         0.0270 
     31 CB        -70.7442   27.0078  -79.1964 C.3       8 UNK        -0.1976 
     32 N         -72.8492   26.2651  -78.0968 N.am      8 UNK        -0.4313 
     33 C         -72.8673   24.9228  -78.1451 C.2       8 UNK         0.5041 
     34 O         -71.8533   24.2242  -78.1169 O.2       8 UNK        -0.5577 
     35 CA        -74.2471   24.2363  -78.2308 C.3       7 UNK         0.0284 
     36 CB        -74.3601   23.0785  -77.2214 C.3       7 UNK        -0.1958 
     37 N         -75.3410   25.1790  -77.9828 N.am      7 UNK        -0.4454 
     38 C         -76.1477   25.7071  -78.9129 C.2       7 UNK         0.5089 
     39 O         -76.1004   25.4068  -80.1057 O.2       7 UNK        -0.5125 
     40 CA        -77.1714   26.7628  -78.4482 C.3       6 UNK         0.0408 
     41 CB        -78.5998   26.2010  -78.5050 C.3       6 UNK        -0.1791 
     42 N         -76.9043   27.2881  -77.1035 N.am      6 UNK        -0.4762 
     43 C         -75.9370   28.1749  -76.8217 C.2       6 UNK         0.5007 
     44 O         -75.1976   28.6589  -77.6793 O.2       6 UNK        -0.5032 
     45 CA        -75.6984   28.5297  -75.3368 C.3       5 UNK         0.0783 
     46 C46       -76.5482   29.7542  -74.9179 C.3       11 UNK        -0.0857 
     47 S47       -75.8212   30.6164  -73.4861 S.3       11 UNK        -0.2512 
     48 C48       -77.2283   30.7617  -72.3378 C.3       11 UNK         0.0225 
     49 N         -75.8945   27.3862  -74.4357 N.am      5 UNK        -0.4615 
     50 C         -75.2612   26.2099  -74.5378 C.2       4 UNK         0.5053 
     51 O         -74.3756   25.9873  -75.3607 O.2       4 UNK        -0.5105 
     52 CA        -75.7313   25.0538  -73.6401 C.3       4 UNK         0.0263 
     53 CB        -76.4313   25.5251  -72.3545 C.3       4 UNK        -0.1981 
     54 N         -76.5875   24.1084  -74.3676 N.am      4 UNK        -0.4224 
     55 C         -77.7251   24.3965  -75.0170 C.2       3 UNK         0.4895 
     56 O         -78.1682   25.5418  -75.1466 O.2       3 UNK        -0.5091 
     57 CA        -78.5289   23.2267  -75.6059 C.3       3 UNK         0.0250 
     58 CB        -78.2201   21.8539  -74.9746 C.3       3 UNK        -0.1996 
     59 N         -79.9291   23.5673  -75.4004 N.am      3 UNK        -0.4254 
     60 C         -80.9513   23.3422  -76.2303 C.2       2 UNK         0.5004 
     61 O         -80.8821   22.6471  -77.2440 O.2       2 UNK        -0.5226 
     62 CA        -82.2733   24.0447  -75.8655 C.3       2 UNK         0.0269 
     63 CB        -83.1932   23.0935  -75.0835 C.3       2 UNK        -0.1926 
     64 N         -82.0420   25.2577  -75.0692 N.am      2 UNK        -0.4687 
     65 C         -81.5994   26.4189  -75.5739 C.2       1 UNK         0.5165 
     66 O         -81.5081   26.6309  -76.7850 O.2       1 UNK        -0.5079 
     67 H67       -83.4246   31.3754  -75.0359 H         1 UNK         0.0900 
     68 H68       -83.5143   30.6928  -76.6619 H         1 UNK         0.0900 
     69 H69       -81.9555   31.1795  -75.9932 H         1 UNK         0.0900 
     70 H70       -80.7465   29.4149  -75.3886 H         1 UNK         0.2959 
     71 H71       -80.0533   27.4986  -74.6265 H         1 UNK         0.1079 
     72 H72       -81.5054   28.2070  -72.5495 H         1 UNK         0.0837 
     73 H73       -82.5863   26.9396  -73.0077 H         1 UNK         0.0837 
     74 H74       -80.9070   27.5825  -70.4140 H         1 UNK         0.0685 
     75 H75       -80.0779   26.1460  -69.8979 H         1 UNK         0.0685 
     76 H76       -79.3975   29.1019  -72.1736 H         1 UNK         0.1434 
     77 H77       -75.4773   29.7062  -70.5552 H         1 UNK         0.1329 
     78 H78       -77.8604   26.4097  -69.2101 H         1 UNK         0.1335 
     79 H79       -75.1469   28.3863  -68.1953 H         1 UNK         0.0680 
     80 H80       -75.7662   26.7629  -68.2040 H         1 UNK         0.0680 
     81 H81       -71.9527   28.2362  -69.4026 H         1 UNK         0.1032 
     82 H82       -73.3628   29.2444  -69.3107 H         1 UNK         0.1032 
     83 H83       -73.6430   29.0600  -71.8122 H         1 UNK         0.0461 
     84 H84       -70.2360   29.6255  -72.1779 H         1 UNK         0.3453 
     85 H85       -70.2969   31.3349  -71.8258 H         1 UNK         0.3453 
     86 H86       -71.6109   27.0834  -71.6480 H         1 UNK         0.2984 
     87 H87       -70.1305   26.8735  -74.1201 H         1 UNK         0.0554 
     88 H88       -71.0457   25.2914  -72.4973 H         1 UNK         0.0847 
     89 H89       -71.0940   24.5101  -74.0631 H         1 UNK         0.0847 
     90 H90       -72.5684   25.1720  -73.3692 H         1 UNK         0.0847 
     91 H91       -72.6179   26.3793  -75.7056 H         1 UNK         0.3141 
     92 H92       -72.0885   28.1620  -78.0033 H         1 UNK         0.0743 
     93 H93       -69.9776   27.7836  -79.1931 H         1 UNK         0.0784 
     94 H94       -70.2303   26.0462  -79.2026 H         1 UNK         0.0784 
     95 H95       -71.2928   27.1023  -80.1334 H         1 UNK         0.0784 
     96 H96       -73.7426   26.7393  -78.1103 H         1 UNK         0.3213 
     97 H97       -74.3317   23.8181  -79.2360 H         1 UNK         0.0855 
     98 H98       -73.6173   22.3067  -77.4268 H         1 UNK         0.0814 
     99 H99       -75.3397   22.6029  -77.2699 H         1 UNK         0.0814 
    100 H100      -74.1997   23.4176  -76.1977 H         1 UNK         0.0814 
    101 H101      -75.4035   25.5240  -77.0310 H         1 UNK         0.3105 
    102 H102      -77.1167   27.5921  -79.1568 H         1 UNK         0.0547 
    103 H103      -78.8330   25.8193  -79.4998 H         1 UNK         0.0837 
    104 H104      -78.7491   25.3833  -77.8011 H         1 UNK         0.0837 
    105 H105      -79.3329   26.9749  -78.2797 H         1 UNK         0.0837 
    106 H106      -77.4358   26.8766  -76.3390 H         1 UNK         0.3020 
    107 H107      -74.6455   28.8076  -75.2742 H         1 UNK         0.1245 
    108 H108      -77.5773   29.4576  -74.7074 H         1 UNK         0.0781 
    109 H109      -76.6037   30.4898  -75.7233 H         1 UNK         0.0781 
    110 H110      -78.1367   30.9977  -72.8942 H         1 UNK         0.0836 
    111 H111      -77.0487   31.6127  -71.6793 H         1 UNK         0.0836 
    112 H112      -76.6218   27.4801  -73.7418 H         1 UNK         0.3022 
    113 H113      -74.8363   24.5051  -73.3458 H         1 UNK         0.0747 
    114 H114      -75.8162   26.2552  -71.8320 H         1 UNK         0.0793 
    115 H115      -77.3969   25.9886  -72.5540 H         1 UNK         0.0793 
    116 H116      -76.6005   24.6955  -71.6684 H         1 UNK         0.0793 
    117 H117      -76.2966   23.1418  -74.3312 H         1 UNK         0.3047 
    118 H118      -78.3130   23.1882  -76.6756 H         1 UNK         0.0822 
    119 H119      -78.8824   21.0844  -75.3722 H         1 UNK         0.0807 
    120 H120      -78.3463   21.8676  -73.8910 H         1 UNK         0.0807 
    121 H121      -77.2007   21.5338  -75.1925 H         1 UNK         0.0807 
    122 H122      -80.0856   24.2144  -74.6392 H         1 UNK         0.2946 
    123 H123      -82.7705   24.3206  -76.7985 H         1 UNK         0.1144 
    124 H124      -84.1527   23.5619  -74.8635 H         1 UNK         0.0793 
    125 H125      -82.7459   22.7823  -74.1386 H         1 UNK         0.0793 
    126 H126      -83.3993   22.1904  -75.6599 H         1 UNK         0.0793 
    127 H127      -82.0959   25.1644  -74.0637 H         1 UNK         0.2896 
@<TRIPOS>BOND
     1    1    2 1    
     2    1   67 1    
     3    1   68 1    
     4    1   69 1    
     5    2    3 2    
     6    2    4 am   BACKBONE|DICT|INTERRES
     7    4    5 1    
     8    4   70 1    
     9    5    6 1    
    10    5   65 1    
    11    5   71 1    
    12    6    7 1    
    13    6   72 1    
    14    6   73 1    
    15    7    8 1    
    16    8    9 1    
    17    8   74 1    
    18    8   75 1    
    19    9   10 ar   
    20    9   14 ar   
    21   10   11 ar   
    22   10   76 1    
    23   11   12 ar   
    24   11   48 1    
    25   12   13 ar   
    26   12   77 1    
    27   13   14 ar   
    28   13   15 1    
    29   14   78 1    
    30   15   16 1    
    31   15   79 1    
    32   15   80 1    
    33   16   17 1    
    34   17   18 1    
    35   17   81 1    
    36   17   82 1    
    37   18   19 1    
    38   18   22 1    
    39   18   83 1    
    40   19   20 am   BACKBONE|DICT|INTERRES
    41   19   21 2    
    42   20   84 1    
    43   20   85 1    
    44   22   23 am   BACKBONE|DICT|INTERRES
    45   22   86 1    
    46   23   24 2    
    47   23   25 1    
    48   25   26 1    
    49   25   27 1    
    50   25   87 1    
    51   26   88 1    
    52   26   89 1    
    53   26   90 1    
    54   27   28 am   BACKBONE|DICT|INTERRES
    55   27   91 1    
    56   28   29 2    
    57   28   30 1    
    58   30   31 1    
    59   30   32 1    
    60   30   92 1    
    61   31   93 1    
    62   31   94 1    
    63   31   95 1    
    64   32   33 am   BACKBONE|DICT|INTERRES
    65   32   96 1    
    66   33   34 2    
    67   33   35 1    
    68   35   36 1    
    69   35   37 1    
    70   35   97 1    
    71   36   98 1    
    72   36   99 1    
    73   36  100 1    
    74   37   38 am   BACKBONE|DICT|INTERRES
    75   37  101 1    
    76   38   39 2    
    77   38   40 1    
    78   40   41 1    
    79   40   42 1    
    80   40  102 1    
    81   41  103 1    
    82   41  104 1    
    83   41  105 1    
    84   42   43 am   BACKBONE|DICT|INTERRES
    85   42  106 1    
    86   43   44 2    
    87   43   45 1    
    88   45   46 1    
    89   45   49 1    
    90   45  107 1    
    91   46   47 1    
    92   46  108 1    
    93   46  109 1    
    94   47   48 1    
    95   48  110 1    
    96   48  111 1    
    97   49   50 am   BACKBONE|DICT|INTERRES
    98   49  112 1    
    99   50   51 2    
   100   50   52 1    
   101   52   53 1    
   102   52   54 1    
   103   52  113 1    
   104   53  114 1    
   105   53  115 1    
   106   53  116 1    
   107   54   55 am   BACKBONE|DICT|INTERRES
   108   54  117 1    
   109   55   56 2    
   110   55   57 1    
   111   57   58 1    
   112   57   59 1    
   113   57  118 1    
   114   58  119 1    
   115   58  120 1    
   116   58  121 1    
   117   59   60 am   BACKBONE|DICT|INTERRES
   118   59  122 1    
   119   60   61 2    
   120   60   62 1    
   121   62   63 1    
   122   62   64 1    
   123   62  123 1    
   124   63  124 1    
   125   63  125 1    
   126   63  126 1    
   127   64   65 am   BACKBONE|DICT|INTERRES
   128   64  127 1    
   129   65   66 2    
@<TRIPOS>SUBSTRUCTURE
     1 UNK         1 GROUP             0       ****    0 ROOT    
