@<TRIPOS>MOLECULE
3R135
127   129    1
SMALL
USER_CHARGES


@<TRIPOS>ATOM
      1 CA        -82.7240   26.6207  -69.9566 C.3       0 UNK        -0.1998 
      2 C         -81.3260   26.0818  -69.6649 C.2       0 UNK         0.4909 
      3 O         -80.7369   26.4593  -68.6539 O.2       0 UNK        -0.5240 
      4 N         -80.7464   25.2103  -70.4998 N.am      1 UNK        -0.4739 
      5 CA        -81.3127   24.6186  -71.7172 C.3       1 UNK         0.0864 
      6 C6        -81.3800   25.5787  -72.9391 C.3       11 UNK        -0.0881 
      7 S7        -79.8011   26.3678  -73.4229 S.3       11 UNK        -0.2682 
      8 C8        -79.8563   27.8995  -72.4400 C.3       11 UNK         0.0289 
      9 C9        -78.9973   29.0002  -73.0417 C.ar      11 UNK        -0.0687 
     10 C10       -79.5638   29.9138  -73.9348 C.ar      11 UNK        -0.0823 
     11 C11       -78.8024   30.9615  -74.4612 C.ar      11 UNK        -0.0830 
     12 C12       -77.4653   31.0996  -74.0759 C.ar      11 UNK        -0.1021 
     13 C13       -76.8837   30.1840  -73.1929 C.ar      11 UNK        -0.0753 
     14 C14       -77.6532   29.1343  -72.6802 C.ar      11 UNK        -0.0933 
     15 C15       -75.4289   30.3462  -72.7828 C.3       11 UNK         0.0166 
     16 S16       -74.3100   29.6672  -74.0420 S.3       11 UNK        -0.2615 
     17 C17       -72.7128   30.2963  -73.4210 C.3       11 UNK        -0.0865 
     18 CA        -71.4948   29.7240  -74.2029 C.3       10 UNK         0.0862 
     19 C         -70.1579   30.4616  -73.8810 C.2       10 UNK         0.5551 
     20 N         -69.0060   29.8117  -73.9961 N.am      10 UNK        -0.7319 
     21 O         -70.1563   31.6466  -73.5559 O.2       10 UNK        -0.5018 
     22 N         -71.4275   28.2519  -74.1468 N.am      10 UNK        -0.4509 
     23 C         -71.1636   27.5203  -73.0545 C.2       10 UNK         0.4899 
     24 O         -70.8954   28.0001  -71.9512 O.2       10 UNK        -0.4839 
     25 CA        -71.2187   25.9912  -73.2372 C.3       9 UNK         0.0222 
     26 CB        -70.9065   25.2152  -71.9398 C.3       9 UNK        -0.1966 
     27 N         -72.4915   25.5436  -73.8121 N.am      9 UNK        -0.4218 
     28 C         -73.7302   25.7452  -73.3388 C.2       9 UNK         0.5020 
     29 O         -73.9731   26.3226  -72.2775 O.2       9 UNK        -0.5274 
     30 CA        -74.8923   25.1926  -74.1947 C.3       8 UNK         0.0270 
     31 CB        -76.2673   25.6715  -73.6935 C.3       8 UNK        -0.1976 
     32 N         -74.7777   25.5227  -75.6203 N.am      8 UNK        -0.4313 
     33 C         -73.9197   24.9817  -76.4953 C.2       8 UNK         0.5041 
     34 O         -73.1009   24.1126  -76.1930 O.2       8 UNK        -0.5577 
     35 CA        -73.9429   25.5265  -77.9328 C.3       7 UNK         0.0284 
     36 CB        -75.0210   24.8158  -78.7674 C.3       7 UNK        -0.1958 
     37 N         -74.1422   26.9763  -78.0028 N.am      7 UNK        -0.4454 
     38 C         -73.3054   27.9039  -77.5180 C.2       7 UNK         0.5089 
     39 O         -72.2493   27.6381  -76.9412 O.2       7 UNK        -0.5125 
     40 CA        -73.7187   29.3798  -77.6806 C.3       6 UNK         0.0408 
     41 CB        -73.3188   29.9320  -79.0625 C.3       6 UNK        -0.1791 
     42 N         -75.1294   29.6351  -77.3548 N.am      6 UNK        -0.4762 
     43 C         -76.2227   29.2759  -78.0409 C.2       6 UNK         0.5007 
     44 O         -76.1941   28.7484  -79.1555 O.2       6 UNK        -0.5032 
     45 CA        -77.5760   29.4874  -77.3316 C.3       5 UNK         0.0783 
     46 C46       -78.2211   30.8269  -77.7667 C.3       11 UNK        -0.0857 
     47 S47       -79.8609   31.1250  -77.0214 S.3       11 UNK        -0.2512 
     48 C48       -79.4284   31.9372  -75.4479 C.3       11 UNK         0.0225 
     49 N         -78.4666   28.3351  -77.5121 N.am      5 UNK        -0.4615 
     50 C         -78.1664   27.0893  -77.1282 C.2       4 UNK         0.5053 
     51 O         -77.1005   26.7820  -76.5852 O.2       4 UNK        -0.5105 
     52 CA        -79.2075   25.9998  -77.4148 C.3       4 UNK         0.0263 
     53 CB        -79.4570   25.8391  -78.9279 C.3       4 UNK        -0.1981 
     54 N         -78.6898   24.7563  -76.8579 N.am      4 UNK        -0.4224 
     55 C         -79.3693   23.6408  -76.5863 C.2       3 UNK         0.4895 
     56 O         -80.5782   23.5013  -76.7718 O.2       3 UNK        -0.5091 
     57 CA        -78.5574   22.4943  -75.9754 C.3       3 UNK         0.0250 
     58 CB        -77.1143   22.3987  -76.5211 C.3       3 UNK        -0.1996 
     59 N         -78.5528   22.6688  -74.5280 N.am      3 UNK        -0.4254 
     60 C         -78.3166   21.7058  -73.6298 C.2       2 UNK         0.5004 
     61 O         -78.0296   20.5452  -73.9255 O.2       2 UNK        -0.5226 
     62 CA        -78.4201   22.0970  -72.1437 C.3       2 UNK         0.0269 
     63 CB        -77.0208   22.3310  -71.5506 C.3       2 UNK        -0.1926 
     64 N         -79.2557   23.2802  -71.9010 N.am      2 UNK        -0.4687 
     65 C         -80.5913   23.3001  -72.0421 C.2       1 UNK         0.5165 
     66 O         -81.2529   22.3191  -72.3834 O.2       1 UNK        -0.5079 
     67 H67       -82.6888   27.3749  -70.7410 H         1 UNK         0.0900 
     68 H68       -83.1368   27.0938  -69.0658 H         1 UNK         0.0900 
     69 H69       -83.4160   25.8336  -70.2506 H         1 UNK         0.0900 
     70 H70       -79.8433   24.8427  -70.2373 H         1 UNK         0.2959 
     71 H71       -82.3354   24.3141  -71.4882 H         1 UNK         0.1079 
     72 H72       -82.1256   26.3537  -72.7657 H         1 UNK         0.0837 
     73 H73       -81.7531   25.0377  -73.8113 H         1 UNK         0.0837 
     74 H74       -80.8845   28.2531  -72.3557 H         1 UNK         0.0685 
     75 H75       -79.5224   27.6849  -71.4243 H         1 UNK         0.0685 
     76 H76       -80.6005   29.8087  -74.2250 H         1 UNK         0.1434 
     77 H77       -76.8696   31.9108  -74.4722 H         1 UNK         0.1329 
     78 H78       -77.2091   28.4272  -71.9928 H         1 UNK         0.1335 
     79 H79       -75.2402   29.8486  -71.8301 H         1 UNK         0.0680 
     80 H80       -75.2089   31.4041  -72.6301 H         1 UNK         0.0680 
     81 H81       -72.7417   31.3847  -73.4978 H         1 UNK         0.1032 
     82 H82       -72.6245   30.0685  -72.3575 H         1 UNK         0.1032 
     83 H83       -71.6577   29.9555  -75.2540 H         1 UNK         0.0461 
     84 H84       -68.9941   28.8434  -74.2734 H         1 UNK         0.3453 
     85 H85       -68.1432   30.2932  -73.7980 H         1 UNK         0.3453 
     86 H86       -71.6430   27.7824  -75.0208 H         1 UNK         0.2984 
     87 H87       -70.4469   25.7390  -73.9658 H         1 UNK         0.0554 
     88 H88       -70.9112   24.1387  -72.1101 H         1 UNK         0.0847 
     89 H89       -71.6295   25.4331  -71.1529 H         1 UNK         0.0847 
     90 H90       -69.9200   25.4777  -71.5557 H         1 UNK         0.0847 
     91 H91       -72.4320   25.0390  -74.6948 H         1 UNK         0.3141 
     92 H92       -74.8639   24.1056  -74.0946 H         1 UNK         0.0743 
     93 H93       -76.3804   26.7493  -73.8171 H         1 UNK         0.0784 
     94 H94       -76.4134   25.4497  -72.6363 H         1 UNK         0.0784 
     95 H95       -77.0764   25.1894  -74.2395 H         1 UNK         0.0784 
     96 H96       -75.4401   26.2139  -75.9688 H         1 UNK         0.3213 
     97 H97       -72.9698   25.3088  -78.3782 H         1 UNK         0.0855 
     98 H98       -74.8865   23.7336  -78.7385 H         1 UNK         0.0814 
     99 H99       -74.9751   25.1188  -79.8136 H         1 UNK         0.0814 
    100 H100      -76.0254   25.0295  -78.4025 H         1 UNK         0.0814 
    101 H101      -74.9880   27.3092  -78.4549 H         1 UNK         0.3105 
    102 H102      -73.1543   29.9478  -76.9424 H         1 UNK         0.0547 
    103 H103      -72.2398   29.8627  -79.2060 H         1 UNK         0.0837 
    104 H104      -73.7845   29.3811  -79.8798 H         1 UNK         0.0837 
    105 H105      -73.5923   30.9819  -79.1653 H         1 UNK         0.0837 
    106 H106      -75.2653   30.0124  -76.4253 H         1 UNK         0.3020 
    107 H107      -77.3716   29.5293  -76.2620 H         1 UNK         0.1245 
    108 H108      -78.3475   30.8489  -78.8511 H         1 UNK         0.0781 
    109 H109      -77.5658   31.6655  -77.5233 H         1 UNK         0.0781 
    110 H110      -80.3349   32.3540  -75.0068 H         1 UNK         0.0836 
    111 H111      -78.7676   32.7836  -75.6420 H         1 UNK         0.0836 
    112 H112      -79.3510   28.5224  -77.9601 H         1 UNK         0.3022 
    113 H113      -80.1349   26.2641  -76.9026 H         1 UNK         0.0747 
    114 H114      -80.1717   25.0418  -79.1323 H         1 UNK         0.0793 
    115 H115      -79.8661   26.7513  -79.3630 H         1 UNK         0.0793 
    116 H116      -78.5354   25.6060  -79.4630 H         1 UNK         0.0793 
    117 H117      -77.7130   24.8228  -76.5996 H         1 UNK         0.3047 
    118 H118      -79.0812   21.5673  -76.2194 H         1 UNK         0.0822 
    119 H119      -76.4865   23.2188  -76.1738 H         1 UNK         0.0807 
    120 H120      -77.1036   22.4077  -77.6119 H         1 UNK         0.0807 
    121 H121      -76.6375   21.4704  -76.2062 H         1 UNK         0.0807 
    122 H122      -78.8290   23.5811  -74.1911 H         1 UNK         0.2946 
    123 H123      -78.8732   21.2506  -71.6219 H         1 UNK         0.1144 
    124 H124      -76.3988   21.4415  -71.6614 H         1 UNK         0.0793 
    125 H125      -76.5011   23.1508  -72.0455 H         1 UNK         0.0793 
    126 H126      -77.0717   22.5567  -70.4854 H         1 UNK         0.0793 
    127 H127      -78.7754   24.1374  -71.6686 H         1 UNK         0.2896 
@<TRIPOS>BOND
     1    1    2 1    
     2    1   67 1    
     3    1   68 1    
     4    1   69 1    
     5    2    3 2    
     6    2    4 am   BACKBONE|DICT|INTERRES
     7    4    5 1    
     8    4   70 1    
     9    5    6 1    
    10    5   65 1    
    11    5   71 1    
    12    6    7 1    
    13    6   72 1    
    14    6   73 1    
    15    7    8 1    
    16    8    9 1    
    17    8   74 1    
    18    8   75 1    
    19    9   10 ar   
    20    9   14 ar   
    21   10   11 ar   
    22   10   76 1    
    23   11   12 ar   
    24   11   48 1    
    25   12   13 ar   
    26   12   77 1    
    27   13   14 ar   
    28   13   15 1    
    29   14   78 1    
    30   15   16 1    
    31   15   79 1    
    32   15   80 1    
    33   16   17 1    
    34   17   18 1    
    35   17   81 1    
    36   17   82 1    
    37   18   19 1    
    38   18   22 1    
    39   18   83 1    
    40   19   20 am   BACKBONE|DICT|INTERRES
    41   19   21 2    
    42   20   84 1    
    43   20   85 1    
    44   22   23 am   BACKBONE|DICT|INTERRES
    45   22   86 1    
    46   23   24 2    
    47   23   25 1    
    48   25   26 1    
    49   25   27 1    
    50   25   87 1    
    51   26   88 1    
    52   26   89 1    
    53   26   90 1    
    54   27   28 am   BACKBONE|DICT|INTERRES
    55   27   91 1    
    56   28   29 2    
    57   28   30 1    
    58   30   31 1    
    59   30   32 1    
    60   30   92 1    
    61   31   93 1    
    62   31   94 1    
    63   31   95 1    
    64   32   33 am   BACKBONE|DICT|INTERRES
    65   32   96 1    
    66   33   34 2    
    67   33   35 1    
    68   35   36 1    
    69   35   37 1    
    70   35   97 1    
    71   36   98 1    
    72   36   99 1    
    73   36  100 1    
    74   37   38 am   BACKBONE|DICT|INTERRES
    75   37  101 1    
    76   38   39 2    
    77   38   40 1    
    78   40   41 1    
    79   40   42 1    
    80   40  102 1    
    81   41  103 1    
    82   41  104 1    
    83   41  105 1    
    84   42   43 am   BACKBONE|DICT|INTERRES
    85   42  106 1    
    86   43   44 2    
    87   43   45 1    
    88   45   46 1    
    89   45   49 1    
    90   45  107 1    
    91   46   47 1    
    92   46  108 1    
    93   46  109 1    
    94   47   48 1    
    95   48  110 1    
    96   48  111 1    
    97   49   50 am   BACKBONE|DICT|INTERRES
    98   49  112 1    
    99   50   51 2    
   100   50   52 1    
   101   52   53 1    
   102   52   54 1    
   103   52  113 1    
   104   53  114 1    
   105   53  115 1    
   106   53  116 1    
   107   54   55 am   BACKBONE|DICT|INTERRES
   108   54  117 1    
   109   55   56 2    
   110   55   57 1    
   111   57   58 1    
   112   57   59 1    
   113   57  118 1    
   114   58  119 1    
   115   58  120 1    
   116   58  121 1    
   117   59   60 am   BACKBONE|DICT|INTERRES
   118   59  122 1    
   119   60   61 2    
   120   60   62 1    
   121   62   63 1    
   122   62   64 1    
   123   62  123 1    
   124   63  124 1    
   125   63  125 1    
   126   63  126 1    
   127   64   65 am   BACKBONE|DICT|INTERRES
   128   64  127 1    
   129   65   66 2    
@<TRIPOS>SUBSTRUCTURE
     1 UNK         1 GROUP             0       ****    0 ROOT    
