@<TRIPOS>MOLECULE
3R135
127   129    1
SMALL
USER_CHARGES


@<TRIPOS>ATOM
      1 CA        -81.7756   26.3312  -72.1013 C.3       0 UNK        -0.1998 
      2 C         -82.0693   27.4140  -73.1279 C.2       0 UNK         0.4909 
      3 O         -83.1814   27.4836  -73.6514 O.2       0 UNK        -0.5240 
      4 N         -81.0725   28.2502  -73.4432 N.am      1 UNK        -0.4739 
      5 CA        -81.1393   29.3570  -74.4091 C.3       1 UNK         0.0864 
      6 C6        -80.1734   30.5121  -74.0200 C.3       11 UNK        -0.0881 
      7 S7        -78.4508   29.9779  -73.7164 S.3       11 UNK        -0.2682 
      8 C8        -78.3951   29.8967  -71.8983 C.3       11 UNK         0.0289 
      9 C9        -77.5323   28.7294  -71.4481 C.ar      11 UNK        -0.0687 
     10 C10       -78.1176   27.5102  -71.1010 C.ar      11 UNK        -0.0823 
     11 C11       -77.3269   26.4267  -70.7100 C.ar      11 UNK        -0.0830 
     12 C12       -75.9344   26.5666  -70.6857 C.ar      11 UNK        -0.1021 
     13 C13       -75.3333   27.7879  -71.0187 C.ar      11 UNK        -0.0753 
     14 C14       -76.1453   28.8680  -71.3792 C.ar      11 UNK        -0.0933 
     15 C15       -73.8167   27.9480  -70.9329 C.3       11 UNK         0.0166 
     16 S16       -73.0267   28.3657  -72.5278 S.3       11 UNK        -0.2615 
     17 C17       -73.1866   30.1866  -72.5886 C.3       11 UNK        -0.0865 
     18 CA        -74.0585   30.6753  -73.7778 C.3       10 UNK         0.0862 
     19 C         -74.4325   32.1775  -73.6133 C.2       10 UNK         0.5551 
     20 N         -74.0083   33.0736  -74.4963 N.am      10 UNK        -0.7319 
     21 O         -75.1211   32.5341  -72.6608 O.2       10 UNK        -0.5018 
     22 N         -73.4271   30.3289  -75.0575 N.am      10 UNK        -0.4509 
     23 C         -74.0232   30.2795  -76.2524 C.2       10 UNK         0.4899 
     24 O         -75.2048   30.5658  -76.4407 O.2       10 UNK        -0.4839 
     25 CA        -73.1677   29.8116  -77.4462 C.3       9 UNK         0.0222 
     26 CB        -72.5899   31.0110  -78.2229 C.3       9 UNK        -0.1966 
     27 N         -72.1271   28.8278  -77.1024 N.am      9 UNK        -0.4218 
     28 C         -71.0124   28.9872  -76.3708 C.2       9 UNK         0.5020 
     29 O         -70.6672   30.0676  -75.8902 O.2       9 UNK        -0.5274 
     30 CA        -70.1895   27.7212  -76.0613 C.3       8 UNK         0.0270 
     31 CB        -69.3448   27.8745  -74.7819 C.3       8 UNK        -0.1976 
     32 N         -71.0611   26.5546  -75.9094 N.am      8 UNK        -0.4313 
     33 C         -71.3301   25.6568  -76.8647 C.2       8 UNK         0.5041 
     34 O         -70.8204   25.6733  -77.9852 O.2       8 UNK        -0.5577 
     35 CA        -72.3769   24.5836  -76.5267 C.3       7 UNK         0.0284 
     36 CB        -71.6994   23.3242  -75.9642 C.3       7 UNK        -0.1958 
     37 N         -73.3998   25.0427  -75.5829 N.am      7 UNK        -0.4454 
     38 C         -74.3323   25.9732  -75.8288 C.2       7 UNK         0.5089 
     39 O         -74.3908   26.6083  -76.8828 O.2       7 UNK        -0.5125 
     40 CA        -75.3750   26.2078  -74.7161 C.3       6 UNK         0.0408 
     41 CB        -76.5339   27.1155  -75.1615 C.3       6 UNK        -0.1791 
     42 N         -75.9226   24.9468  -74.2109 N.am      6 UNK        -0.4762 
     43 C         -75.3273   24.1506  -73.3093 C.2       6 UNK         0.5007 
     44 O         -74.2278   24.3984  -72.8122 O.2       6 UNK        -0.5032 
     45 CA        -76.0328   22.8295  -72.9398 C.3       5 UNK         0.0783 
     46 C46       -76.7932   22.9367  -71.5965 C.3       11 UNK        -0.0857 
     47 S47       -78.2884   23.9886  -71.6539 S.3       11 UNK        -0.2512 
     48 C48       -77.9950   25.1319  -70.2668 C.3       11 UNK         0.0225 
     49 N         -76.8799   22.3143  -74.0192 N.am      5 UNK        -0.4615 
     50 C         -76.4221   21.8546  -75.1915 C.2       4 UNK         0.5053 
     51 O         -75.2251   21.7228  -75.4473 O.2       4 UNK        -0.5105 
     52 CA        -77.4594   21.4856  -76.2692 C.3       4 UNK         0.0263 
     53 CB        -77.5997   19.9579  -76.3725 C.3       4 UNK        -0.1981 
     54 N         -78.7927   22.0764  -76.0910 N.am      4 UNK        -0.4224 
     55 C         -79.0713   23.3869  -76.0702 C.2       3 UNK         0.4895 
     56 O         -78.2169   24.2760  -76.1000 O.2       3 UNK        -0.5091 
     57 CA        -80.5538   23.7582  -75.9612 C.3       3 UNK         0.0250 
     58 CB        -81.0461   23.6176  -74.5109 C.3       3 UNK        -0.1996 
     59 N         -80.7327   25.1409  -76.3959 N.am      3 UNK        -0.4254 
     60 C         -81.7222   25.5918  -77.1747 C.2       2 UNK         0.5004 
     61 O         -82.6406   24.8868  -77.5974 O.2       2 UNK        -0.5226 
     62 CA        -81.6938   27.0954  -77.4841 C.3       2 UNK         0.0269 
     63 CB        -82.8564   27.5563  -78.3842 C.3       2 UNK        -0.1926 
     64 N         -81.7435   27.8178  -76.2162 N.am      2 UNK        -0.4687 
     65 C         -80.9752   28.8536  -75.8649 C.2       1 UNK         0.5165 
     66 O         -80.1683   29.3834  -76.6303 O.2       1 UNK        -0.5079 
     67 H67       -82.4136   25.4640  -72.2698 H         1 UNK         0.0900 
     68 H68       -81.9668   26.7029  -71.0951 H         1 UNK         0.0900 
     69 H69       -80.7406   25.9974  -72.1589 H         1 UNK         0.0900 
     70 H70       -80.1599   28.1190  -73.0320 H         1 UNK         0.2959 
     71 H71       -82.1475   29.7763  -74.3692 H         1 UNK         0.1079 
     72 H72       -80.1642   31.2842  -74.7917 H         1 UNK         0.0837 
     73 H73       -80.5507   31.0142  -73.1280 H         1 UNK         0.0837 
     74 H74       -79.4005   29.7941  -71.4874 H         1 UNK         0.0685 
     75 H75       -77.9976   30.8353  -71.5089 H         1 UNK         0.0685 
     76 H76       -79.1922   27.4083  -71.1168 H         1 UNK         0.1434 
     77 H77       -75.3192   25.7290  -70.3869 H         1 UNK         0.1329 
     78 H78       -75.7081   29.8251  -71.6130 H         1 UNK         0.1335 
     79 H79       -73.5701   28.7010  -70.1834 H         1 UNK         0.0680 
     80 H80       -73.3666   27.0190  -70.5796 H         1 UNK         0.0680 
     81 H81       -73.5793   30.5453  -71.6361 H         1 UNK         0.1032 
     82 H82       -72.1844   30.6130  -72.6612 H         1 UNK         0.1032 
     83 H83       -75.0063   30.1354  -73.7489 H         1 UNK         0.0461 
     84 H84       -73.4461   32.7863  -75.2808 H         1 UNK         0.3453 
     85 H85       -74.2591   34.0425  -74.3788 H         1 UNK         0.3453 
     86 H86       -72.4300   30.1460  -75.0310 H         1 UNK         0.2984 
     87 H87       -73.8465   29.2845  -78.1187 H         1 UNK         0.0554 
     88 H88       -72.0335   30.6841  -79.1013 H         1 UNK         0.0847 
     89 H89       -71.9225   31.6160  -77.6088 H         1 UNK         0.0847 
     90 H90       -73.3885   31.6671  -78.5715 H         1 UNK         0.0847 
     91 H91       -72.3457   27.8826  -77.3909 H         1 UNK         0.3141 
     92 H92       -69.5052   27.5722  -76.8991 H         1 UNK         0.0743 
     93 H93       -68.6283   28.6913  -74.8790 H         1 UNK         0.0784 
     94 H94       -69.9665   28.0866  -73.9108 H         1 UNK         0.0784 
     95 H95       -68.7729   26.9700  -74.5738 H         1 UNK         0.0784 
     96 H96       -71.5559   26.4735  -75.0317 H         1 UNK         0.3213 
     97 H97       -72.8821   24.3144  -77.4568 H         1 UNK         0.0855 
     98 H98       -70.9484   22.9423  -76.6573 H         1 UNK         0.0814 
     99 H99       -72.4234   22.5252  -75.8008 H         1 UNK         0.0814 
    100 H100      -71.1983   23.5227  -75.0160 H         1 UNK         0.0814 
    101 H101      -73.4329   24.5898  -74.6755 H         1 UNK         0.3105 
    102 H102      -74.8678   26.7141  -73.8959 H         1 UNK         0.0547 
    103 H103      -77.0557   26.7123  -76.0295 H         1 UNK         0.0837 
    104 H104      -77.2612   27.2454  -74.3602 H         1 UNK         0.0837 
    105 H105      -76.1710   28.1082  -75.4295 H         1 UNK         0.0837 
    106 H106      -76.7878   24.6356  -74.6409 H         1 UNK         0.3020 
    107 H107      -75.2323   22.1000  -72.7939 H         1 UNK         0.1245 
    108 H108      -76.1165   23.2838  -70.8138 H         1 UNK         0.0781 
    109 H109      -77.1080   21.9407  -71.2815 H         1 UNK         0.0781 
    110 H110      -77.4096   24.6464  -69.4849 H         1 UNK         0.0836 
    111 H111      -78.9576   25.3606  -69.8068 H         1 UNK         0.0836 
    112 H112      -77.8762   22.3976  -73.8822 H         1 UNK         0.3022 
    113 H113      -77.0681   21.8561  -77.2191 H         1 UNK         0.0747 
    114 H114      -78.2423   19.6721  -77.2055 H         1 UNK         0.0793 
    115 H115      -76.6303   19.4857  -76.5395 H         1 UNK         0.0793 
    116 H116      -78.0177   19.5289  -75.4608 H         1 UNK         0.0793 
    117 H117      -79.5613   21.4232  -76.0348 H         1 UNK         0.3047 
    118 H118      -81.1215   23.0843  -76.6069 H         1 UNK         0.0822 
    119 H119      -80.9625   22.5882  -74.1606 H         1 UNK         0.0807 
    120 H120      -82.0935   23.9058  -74.4191 H         1 UNK         0.0807 
    121 H121      -80.4660   24.2416  -73.8311 H         1 UNK         0.0807 
    122 H122      -79.9773   25.7646  -76.1426 H         1 UNK         0.2946 
    123 H123      -80.7532   27.2967  -78.0026 H         1 UNK         0.1144 
    124 H124      -82.8465   27.0265  -79.3376 H         1 UNK         0.0793 
    125 H125      -82.7861   28.6215  -78.6050 H         1 UNK         0.0793 
    126 H126      -83.8252   27.3747  -77.9170 H         1 UNK         0.0793 
    127 H127      -82.3730   27.4446  -75.5113 H         1 UNK         0.2896 
@<TRIPOS>BOND
     1    1    2 1    
     2    1   67 1    
     3    1   68 1    
     4    1   69 1    
     5    2    3 2    
     6    2    4 am   BACKBONE|DICT|INTERRES
     7    4    5 1    
     8    4   70 1    
     9    5    6 1    
    10    5   65 1    
    11    5   71 1    
    12    6    7 1    
    13    6   72 1    
    14    6   73 1    
    15    7    8 1    
    16    8    9 1    
    17    8   74 1    
    18    8   75 1    
    19    9   10 ar   
    20    9   14 ar   
    21   10   11 ar   
    22   10   76 1    
    23   11   12 ar   
    24   11   48 1    
    25   12   13 ar   
    26   12   77 1    
    27   13   14 ar   
    28   13   15 1    
    29   14   78 1    
    30   15   16 1    
    31   15   79 1    
    32   15   80 1    
    33   16   17 1    
    34   17   18 1    
    35   17   81 1    
    36   17   82 1    
    37   18   19 1    
    38   18   22 1    
    39   18   83 1    
    40   19   20 am   BACKBONE|DICT|INTERRES
    41   19   21 2    
    42   20   84 1    
    43   20   85 1    
    44   22   23 am   BACKBONE|DICT|INTERRES
    45   22   86 1    
    46   23   24 2    
    47   23   25 1    
    48   25   26 1    
    49   25   27 1    
    50   25   87 1    
    51   26   88 1    
    52   26   89 1    
    53   26   90 1    
    54   27   28 am   BACKBONE|DICT|INTERRES
    55   27   91 1    
    56   28   29 2    
    57   28   30 1    
    58   30   31 1    
    59   30   32 1    
    60   30   92 1    
    61   31   93 1    
    62   31   94 1    
    63   31   95 1    
    64   32   33 am   BACKBONE|DICT|INTERRES
    65   32   96 1    
    66   33   34 2    
    67   33   35 1    
    68   35   36 1    
    69   35   37 1    
    70   35   97 1    
    71   36   98 1    
    72   36   99 1    
    73   36  100 1    
    74   37   38 am   BACKBONE|DICT|INTERRES
    75   37  101 1    
    76   38   39 2    
    77   38   40 1    
    78   40   41 1    
    79   40   42 1    
    80   40  102 1    
    81   41  103 1    
    82   41  104 1    
    83   41  105 1    
    84   42   43 am   BACKBONE|DICT|INTERRES
    85   42  106 1    
    86   43   44 2    
    87   43   45 1    
    88   45   46 1    
    89   45   49 1    
    90   45  107 1    
    91   46   47 1    
    92   46  108 1    
    93   46  109 1    
    94   47   48 1    
    95   48  110 1    
    96   48  111 1    
    97   49   50 am   BACKBONE|DICT|INTERRES
    98   49  112 1    
    99   50   51 2    
   100   50   52 1    
   101   52   53 1    
   102   52   54 1    
   103   52  113 1    
   104   53  114 1    
   105   53  115 1    
   106   53  116 1    
   107   54   55 am   BACKBONE|DICT|INTERRES
   108   54  117 1    
   109   55   56 2    
   110   55   57 1    
   111   57   58 1    
   112   57   59 1    
   113   57  118 1    
   114   58  119 1    
   115   58  120 1    
   116   58  121 1    
   117   59   60 am   BACKBONE|DICT|INTERRES
   118   59  122 1    
   119   60   61 2    
   120   60   62 1    
   121   62   63 1    
   122   62   64 1    
   123   62  123 1    
   124   63  124 1    
   125   63  125 1    
   126   63  126 1    
   127   64   65 am   BACKBONE|DICT|INTERRES
   128   64  127 1    
   129   65   66 2    
@<TRIPOS>SUBSTRUCTURE
     1 UNK         1 GROUP             0       ****    0 ROOT    
