@<TRIPOS>MOLECULE
3R135
127   129    1
SMALL
USER_CHARGES


@<TRIPOS>ATOM
      1 CA        -85.0820   26.3665  -71.9259 C.3       0 UNK        -0.1998 
      2 C         -83.6813   25.8975  -72.2908 C.2       0 UNK         0.4909 
      3 O         -83.4404   24.6913  -72.3377 O.2       0 UNK        -0.5240 
      4 N         -82.7692   26.8476  -72.5452 N.am      1 UNK        -0.4739 
      5 CA        -81.3631   26.6472  -72.9272 C.3       1 UNK         0.0864 
      6 C6        -80.4898   26.0035  -71.8105 C.3       11 UNK        -0.0881 
      7 S7        -80.5184   26.9401  -70.2400 S.3       11 UNK        -0.2682 
      8 C8        -78.7392   27.0725  -69.8212 C.3       11 UNK         0.0289 
      9 C9        -77.9389   28.1486  -70.5634 C.ar      11 UNK        -0.0687 
     10 C10       -78.4647   28.8850  -71.6320 C.ar      11 UNK        -0.0823 
     11 C11       -77.6925   29.8356  -72.3018 C.ar      11 UNK        -0.0830 
     12 C12       -76.3872   30.0845  -71.8752 C.ar      11 UNK        -0.1021 
     13 C13       -75.8511   29.3802  -70.7948 C.ar      11 UNK        -0.0753 
     14 C14       -76.6252   28.4072  -70.1529 C.ar      11 UNK        -0.0933 
     15 C15       -74.4390   29.6872  -70.3245 C.3       11 UNK         0.0166 
     16 S16       -73.2209   28.6991  -71.2399 S.3       11 UNK        -0.2615 
     17 C17       -71.7716   29.8096  -71.2140 C.3       11 UNK        -0.0865 
     18 CA        -71.6694   30.6763  -72.4982 C.3       10 UNK         0.0862 
     19 C         -70.5101   31.7089  -72.3898 C.2       10 UNK         0.5551 
     20 N         -69.5090   31.6825  -73.2612 N.am      10 UNK        -0.7319 
     21 O         -70.5251   32.5555  -71.4996 O.2       10 UNK        -0.5018 
     22 N         -71.6307   29.8384  -73.7065 N.am      10 UNK        -0.4509 
     23 C         -72.0147   30.2051  -74.9328 C.2       10 UNK         0.4899 
     24 O         -72.4218   31.3336  -75.2096 O.2       10 UNK        -0.4839 
     25 CA        -71.9591   29.1382  -76.0451 C.3       9 UNK         0.0222 
     26 CB        -70.6388   29.2241  -76.8353 C.3       9 UNK        -0.1966 
     27 N         -72.2391   27.7622  -75.6014 N.am      9 UNK        -0.4218 
     28 C         -71.5073   26.9662  -74.8063 C.2       9 UNK         0.5020 
     29 O         -70.4321   27.3007  -74.3068 O.2       9 UNK        -0.5274 
     30 CA        -72.0776   25.5814  -74.4629 C.3       8 UNK         0.0270 
     31 CB        -72.8436   25.6354  -73.1327 C.3       8 UNK        -0.1976 
     32 N         -72.9412   25.0216  -75.5058 N.am      8 UNK        -0.4313 
     33 C         -72.4762   24.4767  -76.6394 C.2       8 UNK         0.5041 
     34 O         -71.2820   24.4392  -76.9405 O.2       8 UNK        -0.5577 
     35 CA        -73.5048   23.8404  -77.5879 C.3       7 UNK         0.0284 
     36 CB        -73.9858   22.4883  -77.0361 C.3       7 UNK        -0.1958 
     37 N         -74.6541   24.7063  -77.8512 N.am      7 UNK        -0.4454 
     38 C         -74.6037   25.8331  -78.5754 C.2       7 UNK         0.5089 
     39 O         -73.5869   26.2473  -79.1328 O.2       7 UNK        -0.5125 
     40 CA        -75.9049   26.6495  -78.6852 C.3       6 UNK         0.0408 
     41 CB        -76.8175   26.0780  -79.7812 C.3       6 UNK        -0.1791 
     42 N         -76.6462   26.7381  -77.4244 N.am      6 UNK        -0.4762 
     43 C         -76.1640   27.2768  -76.2934 C.2       6 UNK         0.5007 
     44 O         -75.0339   27.7524  -76.1855 O.2       6 UNK        -0.5032 
     45 CA        -77.0833   27.2156  -75.0579 C.3       5 UNK         0.0783 
     46 C46       -78.2215   28.2668  -75.1338 C.3       11 UNK        -0.0857 
     47 S47       -77.6154   29.9906  -75.0687 S.3       11 UNK        -0.2512 
     48 C48       -78.2732   30.5966  -73.4832 C.3       11 UNK         0.0225 
     49 N         -77.5956   25.8518  -74.8741 N.am      5 UNK        -0.4615 
     50 C         -76.8256   24.7819  -74.6198 C.2       4 UNK         0.5053 
     51 O         -75.6133   24.8412  -74.4248 O.2       4 UNK        -0.5105 
     52 CA        -77.5004   23.4029  -74.6590 C.3       4 UNK         0.0263 
     53 CB        -78.0711   23.0215  -73.2844 C.3       4 UNK        -0.1981 
     54 N         -78.5400   23.3312  -75.6888 N.am      4 UNK        -0.4224 
     55 C         -78.2707   23.2872  -77.0031 C.2       3 UNK         0.4895 
     56 O         -77.1290   23.2639  -77.4602 O.2       3 UNK        -0.5091 
     57 CA        -79.4563   23.3050  -77.9828 C.3       3 UNK         0.0250 
     58 CB        -79.9029   21.8715  -78.3096 C.3       3 UNK        -0.1996 
     59 N         -80.6061   24.0781  -77.5115 N.am      3 UNK        -0.4254 
     60 C         -80.5979   25.3916  -77.2453 C.2       2 UNK         0.5004 
     61 O         -79.6016   26.1058  -77.3743 O.2       2 UNK        -0.5226 
     62 CA        -81.9066   26.0090  -76.7067 C.3       2 UNK         0.0269 
     63 CB        -83.1251   25.0600  -76.7776 C.3       2 UNK        -0.1926 
     64 N         -81.7775   26.5313  -75.3382 N.am      2 UNK        -0.4687 
     65 C         -81.2568   25.8993  -74.2736 C.2       1 UNK         0.5165 
     66 O         -80.7341   24.7847  -74.3250 O.2       1 UNK        -0.5079 
     67 H67       -85.8052   25.9821  -72.6447 H         1 UNK         0.0900 
     68 H68       -85.1600   27.4535  -71.9148 H         1 UNK         0.0900 
     69 H69       -85.3547   25.9976  -70.9374 H         1 UNK         0.0900 
     70 H70       -83.0557   27.8144  -72.4776 H         1 UNK         0.2959 
     71 H71       -80.9708   27.6440  -73.1205 H         1 UNK         0.1079 
     72 H72       -80.8181   24.9834  -71.6032 H         1 UNK         0.0837 
     73 H73       -79.4555   25.9246  -72.1503 H         1 UNK         0.0837 
     74 H74       -78.2643   26.1028  -69.9774 H         1 UNK         0.0685 
     75 H75       -78.6720   27.2752  -68.7514 H         1 UNK         0.0685 
     76 H76       -79.4792   28.7294  -71.9551 H         1 UNK         0.1434 
     77 H77       -75.7870   30.8245  -72.3874 H         1 UNK         0.1329 
     78 H78       -76.2037   27.8538  -69.3246 H         1 UNK         0.1335 
     79 H79       -74.3362   29.4903  -69.2564 H         1 UNK         0.0680 
     80 H80       -74.2361   30.7504  -70.4635 H         1 UNK         0.0680 
     81 H81       -71.8174   30.4360  -70.3208 H         1 UNK         0.1032 
     82 H82       -70.8756   29.1963  -71.1020 H         1 UNK         0.1032 
     83 H83       -72.5821   31.2731  -72.5529 H         1 UNK         0.0461 
     84 H84       -68.7654   32.3584  -73.1842 H         1 UNK         0.3453 
     85 H85       -69.4930   30.9912  -73.9936 H         1 UNK         0.3453 
     86 H86       -71.2515   28.9035  -73.5969 H         1 UNK         0.2984 
     87 H87       -72.7663   29.3798  -76.7384 H         1 UNK         0.0554 
     88 H88       -70.5036   30.2208  -77.2572 H         1 UNK         0.0847 
     89 H89       -70.6284   28.5170  -77.6648 H         1 UNK         0.0847 
     90 H90       -69.7706   29.0190  -76.2087 H         1 UNK         0.0847 
     91 H91       -73.1609   27.4294  -75.8754 H         1 UNK         0.3141 
     92 H92       -71.2295   24.9067  -74.3273 H         1 UNK         0.0743 
     93 H93       -72.1984   25.9839  -72.3253 H         1 UNK         0.0784 
     94 H94       -73.6958   26.3145  -73.1863 H         1 UNK         0.0784 
     95 H95       -73.2166   24.6517  -72.8471 H         1 UNK         0.0784 
     96 H96       -73.9387   24.9915  -75.3028 H         1 UNK         0.3213 
     97 H97       -73.0036   23.6530  -78.5402 H         1 UNK         0.0855 
     98 H98       -74.5326   22.6045  -76.0999 H         1 UNK         0.0814 
     99 H99       -73.1434   21.8229  -76.8426 H         1 UNK         0.0814 
    100 H100      -74.6416   21.9824  -77.7448 H         1 UNK         0.0814 
    101 H101      -75.5546   24.3930  -77.4986 H         1 UNK         0.3105 
    102 H102      -75.6322   27.6676  -78.9704 H         1 UNK         0.0547 
    103 H103      -76.3077   26.0686  -80.7454 H         1 UNK         0.0837 
    104 H104      -77.1177   25.0532  -79.5633 H         1 UNK         0.0837 
    105 H105      -77.7222   26.6748  -79.8979 H         1 UNK         0.0837 
    106 H106      -77.5994   26.3857  -77.4231 H         1 UNK         0.3020 
    107 H107      -76.4685   27.4469  -74.1839 H         1 UNK         0.1245 
    108 H108      -78.9247   28.1074  -74.3187 H         1 UNK         0.0781 
    109 H109      -78.8034   28.1522  -76.0486 H         1 UNK         0.0781 
    110 H110      -78.0331   31.6562  -73.3839 H         1 UNK         0.0836 
    111 H111      -79.3625   30.5329  -73.4952 H         1 UNK         0.0836 
    112 H112      -78.5705   25.6958  -75.0881 H         1 UNK         0.3022 
    113 H113      -76.7307   22.6688  -74.9070 H         1 UNK         0.0747 
    114 H114      -77.2847   23.0135  -72.5285 H         1 UNK         0.0793 
    115 H115      -78.5134   22.0254  -73.3019 H         1 UNK         0.0793 
    116 H116      -78.8346   23.7201  -72.9471 H         1 UNK         0.0793 
    117 H117      -79.5004   23.4340  -75.3783 H         1 UNK         0.3047 
    118 H118      -79.1074   23.7708  -78.9065 H         1 UNK         0.0822 
    119 H119      -79.0676   21.2798  -78.6874 H         1 UNK         0.0807 
    120 H120      -80.6770   21.8612  -79.0772 H         1 UNK         0.0807 
    121 H121      -80.2936   21.3588  -77.4296 H         1 UNK         0.0807 
    122 H122      -81.4616   23.5664  -77.3512 H         1 UNK         0.2946 
    123 H123      -82.1148   26.8640  -77.3523 H         1 UNK         0.1144 
    124 H124      -83.2872   24.6919  -77.7918 H         1 UNK         0.0793 
    125 H125      -84.0376   25.5787  -76.4828 H         1 UNK         0.0793 
    126 H126      -83.0154   24.1985  -76.1173 H         1 UNK         0.0793 
    127 H127      -82.1684   27.4519  -75.1936 H         1 UNK         0.2896 
@<TRIPOS>BOND
     1    1    2 1    
     2    1   67 1    
     3    1   68 1    
     4    1   69 1    
     5    2    3 2    
     6    2    4 am   BACKBONE|DICT|INTERRES
     7    4    5 1    
     8    4   70 1    
     9    5    6 1    
    10    5   65 1    
    11    5   71 1    
    12    6    7 1    
    13    6   72 1    
    14    6   73 1    
    15    7    8 1    
    16    8    9 1    
    17    8   74 1    
    18    8   75 1    
    19    9   10 ar   
    20    9   14 ar   
    21   10   11 ar   
    22   10   76 1    
    23   11   12 ar   
    24   11   48 1    
    25   12   13 ar   
    26   12   77 1    
    27   13   14 ar   
    28   13   15 1    
    29   14   78 1    
    30   15   16 1    
    31   15   79 1    
    32   15   80 1    
    33   16   17 1    
    34   17   18 1    
    35   17   81 1    
    36   17   82 1    
    37   18   19 1    
    38   18   22 1    
    39   18   83 1    
    40   19   20 am   BACKBONE|DICT|INTERRES
    41   19   21 2    
    42   20   84 1    
    43   20   85 1    
    44   22   23 am   BACKBONE|DICT|INTERRES
    45   22   86 1    
    46   23   24 2    
    47   23   25 1    
    48   25   26 1    
    49   25   27 1    
    50   25   87 1    
    51   26   88 1    
    52   26   89 1    
    53   26   90 1    
    54   27   28 am   BACKBONE|DICT|INTERRES
    55   27   91 1    
    56   28   29 2    
    57   28   30 1    
    58   30   31 1    
    59   30   32 1    
    60   30   92 1    
    61   31   93 1    
    62   31   94 1    
    63   31   95 1    
    64   32   33 am   BACKBONE|DICT|INTERRES
    65   32   96 1    
    66   33   34 2    
    67   33   35 1    
    68   35   36 1    
    69   35   37 1    
    70   35   97 1    
    71   36   98 1    
    72   36   99 1    
    73   36  100 1    
    74   37   38 am   BACKBONE|DICT|INTERRES
    75   37  101 1    
    76   38   39 2    
    77   38   40 1    
    78   40   41 1    
    79   40   42 1    
    80   40  102 1    
    81   41  103 1    
    82   41  104 1    
    83   41  105 1    
    84   42   43 am   BACKBONE|DICT|INTERRES
    85   42  106 1    
    86   43   44 2    
    87   43   45 1    
    88   45   46 1    
    89   45   49 1    
    90   45  107 1    
    91   46   47 1    
    92   46  108 1    
    93   46  109 1    
    94   47   48 1    
    95   48  110 1    
    96   48  111 1    
    97   49   50 am   BACKBONE|DICT|INTERRES
    98   49  112 1    
    99   50   51 2    
   100   50   52 1    
   101   52   53 1    
   102   52   54 1    
   103   52  113 1    
   104   53  114 1    
   105   53  115 1    
   106   53  116 1    
   107   54   55 am   BACKBONE|DICT|INTERRES
   108   54  117 1    
   109   55   56 2    
   110   55   57 1    
   111   57   58 1    
   112   57   59 1    
   113   57  118 1    
   114   58  119 1    
   115   58  120 1    
   116   58  121 1    
   117   59   60 am   BACKBONE|DICT|INTERRES
   118   59  122 1    
   119   60   61 2    
   120   60   62 1    
   121   62   63 1    
   122   62   64 1    
   123   62  123 1    
   124   63  124 1    
   125   63  125 1    
   126   63  126 1    
   127   64   65 am   BACKBONE|DICT|INTERRES
   128   64  127 1    
   129   65   66 2    
@<TRIPOS>SUBSTRUCTURE
     1 UNK         1 GROUP             0       ****    0 ROOT    
