@<TRIPOS>MOLECULE
3R135
127   129    1
SMALL
USER_CHARGES


@<TRIPOS>ATOM
      1 CA        -77.0832   31.4089  -76.2442 C.3       0 UNK        -0.1998 
      2 C         -77.1809   30.0933  -75.4876 C.2       0 UNK         0.4909 
      3 O         -76.1545   29.4719  -75.2158 O.2       0 UNK        -0.5240 
      4 N         -78.4067   29.6683  -75.1538 N.am      1 UNK        -0.4739 
      5 CA        -78.7115   28.4306  -74.4229 C.3       1 UNK         0.0864 
      6 C6        -80.1678   28.4801  -73.8840 C.3       11 UNK        -0.0881 
      7 S7        -80.7081   27.0253  -72.9178 S.3       11 UNK        -0.2682 
      8 C8        -80.4454   27.5679  -71.2004 C.3       11 UNK         0.0289 
      9 C9        -78.9744   27.7563  -70.8471 C.ar      11 UNK        -0.0687 
     10 C10       -78.0892   26.6719  -70.8728 C.ar      11 UNK        -0.0823 
     11 C11       -76.7551   26.8298  -70.4826 C.ar      11 UNK        -0.0830 
     12 C12       -76.3080   28.0870  -70.0675 C.ar      11 UNK        -0.1021 
     13 C13       -77.1790   29.1810  -70.0462 C.ar      11 UNK        -0.0753 
     14 C14       -78.5097   29.0099  -70.4377 C.ar      11 UNK        -0.0933 
     15 C15       -76.6841   30.5426  -69.5776 C.3       11 UNK         0.0166 
     16 S16       -76.5578   31.7561  -70.9329 S.3       11 UNK        -0.2615 
     17 C17       -75.4523   30.9124  -72.1148 C.3       11 UNK        -0.0865 
     18 CA        -73.9649   31.3466  -72.0449 C.3       10 UNK         0.0862 
     19 C         -73.2682   30.9018  -70.7348 C.2       10 UNK         0.5551 
     20 N         -73.1605   31.7857  -69.7529 N.am      10 UNK        -0.7319 
     21 O         -72.8377   29.7580  -70.5985 O.2       10 UNK        -0.5018 
     22 N         -73.2253   30.7998  -73.1830 N.am      10 UNK        -0.4509 
     23 C         -73.2763   31.2523  -74.4377 C.2       10 UNK         0.4899 
     24 O         -73.8956   32.2612  -74.7772 O.2       10 UNK        -0.4839 
     25 CA        -72.5442   30.4348  -75.5088 C.3       9 UNK         0.0222 
     26 CB        -71.6396   29.3076  -74.9615 C.3       9 UNK        -0.1966 
     27 N         -73.5576   29.8730  -76.3948 N.am      9 UNK        -0.4218 
     28 C         -73.3815   29.5900  -77.6874 C.2       9 UNK         0.5020 
     29 O         -72.3239   29.7635  -78.2982 O.2       9 UNK        -0.5274 
     30 CA        -74.5880   28.9932  -78.4285 C.3       8 UNK         0.0270 
     31 CB        -74.9536   29.8223  -79.6716 C.3       8 UNK        -0.1976 
     32 N         -74.3064   27.6141  -78.8227 N.am      8 UNK        -0.4313 
     33 C         -74.2606   26.5913  -77.9623 C.2       8 UNK         0.5041 
     34 O         -74.5009   26.6907  -76.7556 O.2       8 UNK        -0.5577 
     35 CA        -73.8993   25.2211  -78.5393 C.3       7 UNK         0.0284 
     36 CB        -72.3736   25.0380  -78.6282 C.3       7 UNK        -0.1958 
     37 N         -74.4745   24.2264  -77.6455 N.am      7 UNK        -0.4454 
     38 C         -74.7960   22.9676  -77.9461 C.2       7 UNK         0.5089 
     39 O         -74.5714   22.4564  -79.0443 O.2       7 UNK        -0.5125 
     40 CA        -75.5216   22.1387  -76.8675 C.3       6 UNK         0.0408 
     41 CB        -74.7547   20.8422  -76.5354 C.3       6 UNK        -0.1791 
     42 N         -75.8886   22.8737  -75.6451 N.am      6 UNK        -0.4762 
     43 C         -75.0959   23.3313  -74.6597 C.2       6 UNK         0.5007 
     44 O         -73.8683   23.2500  -74.6833 O.2       6 UNK        -0.5032 
     45 CA        -75.7842   23.9844  -73.4370 C.3       5 UNK         0.0783 
     46 C46       -75.3665   25.4728  -73.2337 C.3       11 UNK        -0.0857 
     47 S47       -74.4646   25.7405  -71.6754 S.3       11 UNK        -0.2512 
     48 C48       -75.8110   25.6334  -70.4483 C.3       11 UNK         0.0225 
     49 N         -77.2449   23.8465  -73.4922 N.am      5 UNK        -0.4615 
     50 C         -77.9289   22.7653  -73.0972 C.2       4 UNK         0.5053 
     51 O         -77.3974   21.7837  -72.5787 O.2       4 UNK        -0.5105 
     52 CA        -79.4457   22.7442  -73.3371 C.3       4 UNK         0.0263 
     53 CB        -80.2104   23.2420  -72.1000 C.3       4 UNK        -0.1981 
     54 N         -79.8583   23.5161  -74.5176 N.am      4 UNK        -0.4224 
     55 C         -80.6702   23.0404  -75.4756 C.2       3 UNK         0.4895 
     56 O         -81.1151   21.8916  -75.4857 O.2       3 UNK        -0.5091 
     57 CA        -81.0910   23.9910  -76.6136 C.3       3 UNK         0.0250 
     58 CB        -82.4641   24.6102  -76.3045 C.3       3 UNK        -0.1996 
     59 N         -80.1394   25.0669  -76.8868 N.am      3 UNK        -0.4254 
     60 C         -78.9121   24.9065  -77.3996 C.2       2 UNK         0.5004 
     61 O         -78.4525   23.8208  -77.7519 O.2       2 UNK        -0.5226 
     62 CA        -78.0309   26.1665  -77.5051 C.3       2 UNK         0.0269 
     63 CB        -78.0077   26.6954  -78.9476 C.3       2 UNK        -0.1926 
     64 N         -78.3921   27.2612  -76.5914 N.am      2 UNK        -0.4687 
     65 C         -78.4230   27.1573  -75.2536 C.2       1 UNK         0.5165 
     66 O         -78.2515   26.0856  -74.6733 O.2       1 UNK        -0.5079 
     67 H67       -76.4886   32.1233  -75.6758 H         1 UNK         0.0900 
     68 H68       -76.6002   31.2560  -77.2083 H         1 UNK         0.0900 
     69 H69       -78.0629   31.8518  -76.4224 H         1 UNK         0.0900 
     70 H70       -79.2057   30.2325  -75.4070 H         1 UNK         0.2959 
     71 H71       -78.0378   28.3871  -73.5635 H         1 UNK         0.1079 
     72 H72       -80.8668   28.5924  -74.7147 H         1 UNK         0.0837 
     73 H73       -80.2995   29.3707  -73.2673 H         1 UNK         0.0837 
     74 H74       -80.8698   26.8171  -70.5326 H         1 UNK         0.0685 
     75 H75       -81.0123   28.4837  -71.0263 H         1 UNK         0.0685 
     76 H76       -78.4450   25.6999  -71.1803 H         1 UNK         0.1434 
     77 H77       -75.2781   28.2109  -69.7596 H         1 UNK         0.1329 
     78 H78       -79.1844   29.8546  -70.4089 H         1 UNK         0.1335 
     79 H79       -75.7157   30.4518  -69.0842 H         1 UNK         0.0680 
     80 H80       -77.3697   30.9317  -68.8236 H         1 UNK         0.0680 
     81 H81       -75.5404   29.8285  -72.0412 H         1 UNK         0.1032 
     82 H82       -75.8470   31.1577  -73.0998 H         1 UNK         0.1032 
     83 H83       -73.9129   32.4359  -72.1042 H         1 UNK         0.0461 
     84 H84       -73.5280   32.7192  -69.8524 H         1 UNK         0.3453 
     85 H85       -72.7117   31.5123  -68.8930 H         1 UNK         0.3453 
     86 H86       -72.6765   29.9777  -72.9681 H         1 UNK         0.2984 
     87 H87       -71.9233   31.1386  -76.0671 H         1 UNK         0.0554 
     88 H88       -70.8947   29.6968  -74.2661 H         1 UNK         0.0847 
     89 H89       -71.0928   28.8210  -75.7694 H         1 UNK         0.0847 
     90 H90       -72.2139   28.5349  -74.4481 H         1 UNK         0.0847 
     91 H91       -74.4663   29.6925  -75.9655 H         1 UNK         0.3141 
     92 H92       -75.4538   28.9875  -77.7640 H         1 UNK         0.0743 
     93 H93       -75.1685   30.8565  -79.3996 H         1 UNK         0.0784 
     94 H94       -74.1423   29.8405  -80.4006 H         1 UNK         0.0784 
     95 H95       -75.8406   29.4268  -80.1666 H         1 UNK         0.0784 
     96 H96       -74.0524   27.4609  -79.7881 H         1 UNK         0.3213 
     97 H97       -74.3489   25.1209  -79.5297 H         1 UNK         0.0855 
     98 H98       -71.9017   25.1298  -77.6489 H         1 UNK         0.0814 
     99 H99       -71.9250   25.7891  -79.2794 H         1 UNK         0.0814 
    100 H100      -72.1131   24.0605  -79.0344 H         1 UNK         0.0814 
    101 H101      -74.6957   24.5903  -76.7260 H         1 UNK         0.3105 
    102 H102      -76.4707   21.8432  -77.3169 H         1 UNK         0.0547 
    103 H103      -75.2906   20.2394  -75.8025 H         1 UNK         0.0837 
    104 H104      -73.7590   21.0464  -76.1412 H         1 UNK         0.0837 
    105 H105      -74.6259   20.2271  -77.4268 H         1 UNK         0.0837 
    106 H106      -76.8811   23.0297  -75.5344 H         1 UNK         0.3020 
    107 H107      -75.4298   23.4015  -72.5838 H         1 UNK         0.1245 
    108 H108      -76.2247   26.1428  -73.2230 H         1 UNK         0.0781 
    109 H109      -74.7384   25.8417  -74.0477 H         1 UNK         0.0781 
    110 H110      -75.3672   25.5673  -69.4540 H         1 UNK         0.0836 
    111 H111      -76.3595   24.7014  -70.5930 H         1 UNK         0.0836 
    112 H112      -77.7334   24.6445  -73.8979 H         1 UNK         0.3022 
    113 H113      -79.7009   21.6912  -73.4741 H         1 UNK         0.0747 
    114 H114      -81.2821   23.0753  -72.2087 H         1 UNK         0.0793 
    115 H115      -79.8903   22.7161  -71.1994 H         1 UNK         0.0793 
    116 H116      -80.0582   24.3062  -71.9316 H         1 UNK         0.0793 
    117 H117      -79.5275   24.4727  -74.5866 H         1 UNK         0.3047 
    118 H118      -81.1823   23.3899  -77.5210 H         1 UNK         0.0822 
    119 H119      -82.8239   25.2164  -77.1361 H         1 UNK         0.0807 
    120 H120      -82.4305   25.2422  -75.4157 H         1 UNK         0.0807 
    121 H121      -83.2108   23.8353  -76.1247 H         1 UNK         0.0807 
    122 H122      -80.4201   26.0000  -76.6235 H         1 UNK         0.2946 
    123 H123      -77.0215   25.8515  -77.2375 H         1 UNK         0.1144 
    124 H124      -77.3087   27.5243  -79.0564 H         1 UNK         0.0793 
    125 H125      -78.9919   27.0407  -79.2661 H         1 UNK         0.0793 
    126 H126      -77.6931   25.9164  -79.6438 H         1 UNK         0.0793 
    127 H127      -78.5531   28.1691  -77.0021 H         1 UNK         0.2896 
@<TRIPOS>BOND
     1    1    2 1    
     2    1   67 1    
     3    1   68 1    
     4    1   69 1    
     5    2    3 2    
     6    2    4 am   BACKBONE|DICT|INTERRES
     7    4    5 1    
     8    4   70 1    
     9    5    6 1    
    10    5   65 1    
    11    5   71 1    
    12    6    7 1    
    13    6   72 1    
    14    6   73 1    
    15    7    8 1    
    16    8    9 1    
    17    8   74 1    
    18    8   75 1    
    19    9   10 ar   
    20    9   14 ar   
    21   10   11 ar   
    22   10   76 1    
    23   11   12 ar   
    24   11   48 1    
    25   12   13 ar   
    26   12   77 1    
    27   13   14 ar   
    28   13   15 1    
    29   14   78 1    
    30   15   16 1    
    31   15   79 1    
    32   15   80 1    
    33   16   17 1    
    34   17   18 1    
    35   17   81 1    
    36   17   82 1    
    37   18   19 1    
    38   18   22 1    
    39   18   83 1    
    40   19   20 am   BACKBONE|DICT|INTERRES
    41   19   21 2    
    42   20   84 1    
    43   20   85 1    
    44   22   23 am   BACKBONE|DICT|INTERRES
    45   22   86 1    
    46   23   24 2    
    47   23   25 1    
    48   25   26 1    
    49   25   27 1    
    50   25   87 1    
    51   26   88 1    
    52   26   89 1    
    53   26   90 1    
    54   27   28 am   BACKBONE|DICT|INTERRES
    55   27   91 1    
    56   28   29 2    
    57   28   30 1    
    58   30   31 1    
    59   30   32 1    
    60   30   92 1    
    61   31   93 1    
    62   31   94 1    
    63   31   95 1    
    64   32   33 am   BACKBONE|DICT|INTERRES
    65   32   96 1    
    66   33   34 2    
    67   33   35 1    
    68   35   36 1    
    69   35   37 1    
    70   35   97 1    
    71   36   98 1    
    72   36   99 1    
    73   36  100 1    
    74   37   38 am   BACKBONE|DICT|INTERRES
    75   37  101 1    
    76   38   39 2    
    77   38   40 1    
    78   40   41 1    
    79   40   42 1    
    80   40  102 1    
    81   41  103 1    
    82   41  104 1    
    83   41  105 1    
    84   42   43 am   BACKBONE|DICT|INTERRES
    85   42  106 1    
    86   43   44 2    
    87   43   45 1    
    88   45   46 1    
    89   45   49 1    
    90   45  107 1    
    91   46   47 1    
    92   46  108 1    
    93   46  109 1    
    94   47   48 1    
    95   48  110 1    
    96   48  111 1    
    97   49   50 am   BACKBONE|DICT|INTERRES
    98   49  112 1    
    99   50   51 2    
   100   50   52 1    
   101   52   53 1    
   102   52   54 1    
   103   52  113 1    
   104   53  114 1    
   105   53  115 1    
   106   53  116 1    
   107   54   55 am   BACKBONE|DICT|INTERRES
   108   54  117 1    
   109   55   56 2    
   110   55   57 1    
   111   57   58 1    
   112   57   59 1    
   113   57  118 1    
   114   58  119 1    
   115   58  120 1    
   116   58  121 1    
   117   59   60 am   BACKBONE|DICT|INTERRES
   118   59  122 1    
   119   60   61 2    
   120   60   62 1    
   121   62   63 1    
   122   62   64 1    
   123   62  123 1    
   124   63  124 1    
   125   63  125 1    
   126   63  126 1    
   127   64   65 am   BACKBONE|DICT|INTERRES
   128   64  127 1    
   129   65   66 2    
@<TRIPOS>SUBSTRUCTURE
     1 UNK         1 GROUP             0       ****    0 ROOT    
